<?xml version="1.0" encoding="UTF-8"?>

<!-- generated on Tue Mar 31 12:43:07 2020 by Eclipse SUMO polyconvert Version v1_5_0+0995-d754181b35
<configuration xmlns:xsi="http://www.w3.org/2001/XMLSchema-instance" xsi:noNamespaceSchemaLocation="http://sumo.dlr.de/xsd/polyconvertConfiguration.xsd">

    <input>
        <net-file value="osm.net.xml"/>
        <osm-files value="osm_bbox.osm.xml"/>
        <osm.keep-full-type value="true"/>
        <type-file value="/home/joseph/sumo/data/typemap/osmPolyconvert.typ.xml"/>
    </input>

    <output>
        <output-file value="osm.poly.xml"/>
    </output>

    <processing>
        <poi-layer-offset value="5"/>
    </processing>

    <report>
        <verbose value="true"/>
    </report>

</configuration>
-->

<additional xmlns:xsi="http://www.w3.org/2001/XMLSchema-instance" xsi:noNamespaceSchemaLocation="http://sumo.dlr.de/xsd/additional_file.xsd">
    <location netOffset="-494830.63,-5903658.29" convBoundary="-1032.05,-1352.08,1851.28,3688.31" origBoundary="-9.093073,53.269984,-9.049769,53.315271" projParameter="+proj=utm +zone=29 +ellps=WGS84 +datum=WGS84 +units=m +no_defs"/>

    <poly id="109078455" type="amenity.parking" color="184,184,179" fill="1" layer="-1.00" shape="766.682302,342.341902 774.291059,315.613303 762.780241,311.318668 751.304856,338.073118 766.682302,342.341902"/>
    <poly id="109078916" type="amenity.parking" color="184,184,179" fill="1" layer="-1.00" shape="697.668372,385.069467 715.271471,338.440405 750.370862,344.559695 754.844588,359.329175 751.622740,364.549655 751.180550,412.519857 697.668372,385.069467"/>
    <poly id="128521217" type="natural.water" color="181,209,209" fill="1" layer="-4.00" shape="1041.999250,812.782464 1047.292046,820.409444 1058.791103,820.521880 1051.638166,835.657685 1042.878503,842.796214 1035.087510,844.638548 1031.287065,851.383432 1044.836904,871.963551 1035.864171,879.291398 1035.244220,886.956873 1040.893287,898.098951 1038.290730,902.517724 1034.003108,900.886109 1030.224863,910.111789 1019.767041,911.300108 1010.906003,916.636579 980.271467,956.901559 960.131141,983.996902 933.365755,1034.159782 898.659887,1074.428918 890.149372,1076.205388 873.149184,1095.455349 855.609444,1107.597156 798.234887,1169.491843 760.794334,1205.492607 731.046538,1241.742364 722.972590,1253.820230 723.408119,1263.398220 716.185415,1273.350480 707.463697,1276.907431 685.785795,1296.095705 673.455858,1304.272882 659.234648,1335.313213 629.718216,1353.897311 628.212524,1354.599605 621.436047,1356.853267 618.054621,1354.642674 616.970226,1349.815575 612.660372,1352.545256 613.405255,1357.806544 615.655866,1362.410033 591.455604,1377.807615 576.655724,1374.751434 563.796104,1379.291618 552.901244,1382.261345 530.892087,1388.690575 513.437261,1403.881746 264.533656,1569.078059 251.386184,1597.426333 245.319380,1595.808388 243.861710,1591.259876 250.567096,1585.201087 249.932015,1583.355036 248.132088,1582.989779 188.108142,1628.596869 151.955725,1664.845854 142.274750,1674.100724 134.077428,1680.850977 125.429783,1690.305035 118.433656,1685.873676 112.449032,1692.543748 116.123534,1700.872282 111.129639,1705.327480 102.473967,1700.886783 93.162311,1712.566555 87.850170,1724.798314 78.851647,1717.587963 81.510450,1710.921400 70.487594,1705.404190 12.657044,1767.119789 -15.737718,1782.769760 -42.517683,1812.201695 -60.610867,1849.912172 -58.006168,1927.782549 -56.406764,2006.666391 -62.433165,2023.248886 -61.889695,2056.911784 -53.809924,2077.505955 -31.526653,2087.716338 -14.420060,2087.119200 -3.581022,2108.188818 -0.960297,2122.002914 3.057534,2133.635044 56.128483,2118.448103 62.163303,2128.086787 58.216224,2138.781908 29.847993,2152.395762 45.900248,2187.877549 68.348503,2209.702465 84.899266,2225.693285 81.279281,2236.877529 86.243874,2242.979717 92.282197,2243.607386 96.347104,2237.184071 102.264297,2249.225879 114.551765,2260.771439 134.417376,2248.235046 151.984569,2248.906239 162.037193,2258.296075 179.136327,2263.862752 184.360489,2269.797899 174.454868,2267.071589 163.840884,2268.818196 152.574173,2270.888131 147.055617,2282.830809 148.408585,2295.633974 142.375956,2306.642721 127.362722,2319.919301 117.892280,2325.313719 112.846251,2317.709742 122.596105,2311.858903 133.845408,2299.732136 127.578193,2290.549721 119.316622,2285.963952 114.550088,2278.025934 106.792737,2271.359323 105.282218,2267.178021 99.528041,2264.258334 96.812344,2254.782936 83.796344,2247.521229 74.236555,2244.238521 48.475222,2233.686513 46.713957,2244.268048 55.734601,2260.544992 53.988697,2266.821229 38.975884,2261.820115 31.725498,2268.091168 26.723524,2270.610762 22.705793,2258.911861 25.444057,2245.959689 24.933424,2235.936838 19.680783,2234.696542 20.419473,2227.587026 19.661811,2217.152827 21.395155,2205.447712 18.623897,2187.906973 14.116109,2179.145546 16.360012,2171.211169 12.089837,2160.346908 4.077101,2152.012028 -14.439528,2154.946833 -22.948956,2149.527224 -30.445371,2162.484616 -28.426229,2174.597267 -35.412916,2190.479920 -48.669074,2195.500566 -49.393739,2221.399786 -55.644457,2227.669877 -53.902795,2217.644563 -56.170387,2203.863481 -64.184551,2194.271620 -88.943141,2187.067804 -115.612421,2205.686789 -174.994002,2249.462220 -252.014128,2275.670207 -325.526708,2285.800120 -466.951782,2307.247070 -490.923081,2312.070273 -519.798088,2339.983325 -588.588022,2385.688640 -662.506069,2454.551858 -724.344059,2536.862229 -828.297129,2706.277562 -888.719136,2833.532387 -928.915265,2929.735077 -945.391430,3123.026858 -959.881478,3326.128250 -947.029241,3378.097800 -912.498049,3466.350917 -815.875469,3618.615673 -854.955573,3666.067666 -885.246446,3688.311164 -939.871161,3592.930337 -1031.568003,3399.789241 -1030.712549,3304.637909 -1032.048490,3030.925713 -1031.171266,2952.428187 -1011.592286,2882.750546 -835.650919,2539.293002 -786.893350,2395.077110 -766.812886,2343.410903 -786.991633,2316.503059 -774.914737,2307.243295 -755.554357,2324.507041 -695.232648,2237.514640 -647.930942,2204.794338 -580.972287,2186.123547 -440.004603,2152.803646 -394.687079,2142.193091 -326.189705,2150.156750 -280.350803,2158.147270 -224.942309,2166.116257 -187.692626,2151.500782 -141.393432,2118.297162 -128.828711,2096.678898 -122.806554,2076.569776 -130.529368,1927.862702 -133.604888,1877.126147 -141.667415,1872.607359 -154.276965,1860.562210 -157.098096,1840.896810 -163.556659,1834.473933 -166.297712,1826.845427 -165.297021,1815.830806 -166.581775,1805.297109 -162.073283,1796.214267 -155.432911,1792.335426 -143.719209,1777.826800 -117.068308,1740.584869 -80.015487,1707.303147 -57.530649,1693.072120 -41.715605,1680.305833 -28.750020,1670.312770 1.260798,1650.845184 13.614442,1641.831878 32.854402,1621.753178 46.106704,1592.992569 103.865608,1542.980701 365.039493,1361.599357 489.955670,1288.619108 573.880081,1233.581213 613.736111,1208.923894 661.561079,1173.546244 684.983759,1145.078195 708.288969,1126.110894 787.569367,1052.892202 838.029095,1001.661173 879.285960,944.843223 903.081920,906.207922 928.831636,845.366048 942.977462,830.913583 955.435274,799.597568 963.897049,779.776955 962.459098,751.766165 956.516370,733.093003 947.403231,687.434075 928.794804,646.700738 925.425495,636.046252 911.727471,592.705427 911.331363,559.743229 910.717607,507.034846 903.950318,483.812482 908.011987,463.406110 905.522288,445.074798 904.073507,427.799404 907.620691,391.140279 918.583407,326.929735 939.861955,272.399683 981.116944,212.445521 1015.100874,169.618992 1081.526526,48.279915 1095.952261,22.580600 1154.017916,-78.881548 1193.531111,-99.684511 1272.318163,-141.711992 1334.706846,-180.988323 1363.809749,-198.410694 1399.600526,-215.649062 1432.791202,-241.417772 1444.691593,-259.994223 1445.853759,-265.957974 1445.510079,-270.607833 1439.928074,-280.704702 1437.736363,-286.754826 1431.374114,-296.973446 1422.387160,-304.175198 1411.740331,-353.160020 1412.688200,-360.280578 1413.522814,-375.744576 1400.111197,-387.715295 1388.994827,-406.073378 1403.364436,-422.260074 1417.347760,-438.001434 1427.532816,-459.290999 1417.709887,-469.262136 1398.028301,-483.641969 1396.358257,-487.523169 1415.452892,-524.194141 1416.584725,-526.375474 1419.303338,-528.802799 1425.132740,-543.725607 1427.650197,-556.087128 1423.562496,-581.826477 1394.050988,-706.633456 1400.382600,-727.519527 1415.915138,-767.024463 1427.940607,-780.761794 1436.034734,-799.313012 1445.976956,-825.252458 1447.857793,-850.417991 1434.670352,-898.099250 1424.901103,-940.476677 1424.749546,-955.138906 1409.428018,-1027.693228 1401.263766,-1089.061715 1401.232993,-1094.245798 1402.912986,-1103.358249 1409.133473,-1139.028923 1411.415132,-1154.772161 1418.259867,-1193.947589 1423.581447,-1219.649809 1430.119421,-1233.549680 1432.428718,-1239.703444 1436.200173,-1252.266174 1437.422385,-1258.496958 1437.141957,-1258.919476 1436.508318,-1259.030227 1435.914989,-1258.762770 1434.836699,-1256.103124 1430.825730,-1242.817101 1427.218759,-1233.135791 1421.864638,-1231.818872 1418.615417,-1233.663015 1425.374791,-1245.883238 1425.661022,-1246.562069 1425.693826,-1247.251825 1425.186618,-1247.718664 1423.885972,-1247.973510 1422.358397,-1248.461796 1430.629913,-1262.908138 1435.137497,-1272.245285 1437.361803,-1276.251915 1438.691041,-1290.603805 1438.745257,-1306.545527 1439.852024,-1315.446144 1444.323749,-1328.087286 1441.541497,-1329.687067 1444.284849,-1335.195932 1448.141989,-1340.650041 1449.307507,-1342.664520 1454.775493,-1352.080269 1477.937352,-1334.765994 1494.592852,-1322.463831 1486.283998,-1312.801190 1478.062823,-1301.914886 1469.389337,-1280.960373 1462.756587,-1242.908781 1460.124665,-1222.793295 1459.650666,-1214.872146 1458.452625,-1194.702149 1454.430142,-1179.057701 1450.038843,-1166.049513 1447.179310,-1164.256206 1438.774929,-1115.223120 1435.504462,-1093.215918 1433.696180,-1069.029419 1436.196312,-1044.290059 1439.270095,-1019.328653 1443.214137,-990.051542 1451.780215,-968.331701 1464.957856,-950.453450 1483.068969,-934.036315 1488.317593,-924.751251 1494.012908,-915.566647 1496.337374,-901.940686 1493.663349,-893.250238 1482.957360,-871.404192 1479.245323,-851.232245 1476.510493,-826.422053 1470.132767,-787.024555 1457.737760,-742.427129 1453.408311,-727.572284 1448.381061,-718.268114 1441.460004,-691.986166 1441.899163,-676.133813 1444.616969,-654.120156 1450.619007,-653.190368 1452.732047,-654.159865 1459.146719,-654.242735 1467.114926,-654.504799 1470.978026,-643.004858 1479.454133,-633.177192 1488.015954,-624.562169 1498.859252,-614.613925 1511.856652,-604.188947 1536.196756,-584.461218 1528.991275,-572.251923 1538.453561,-554.248249 1541.779986,-555.430000 1546.250596,-551.406258 1561.278792,-570.919260 1570.566677,-562.949870 1563.118945,-544.766479 1560.724176,-546.044007 1559.259523,-543.005855 1561.594246,-541.772781 1555.339670,-524.213263 1549.163594,-526.266646 1542.756501,-507.683523 1548.405824,-505.585249 1518.872929,-419.424146 1539.233832,-361.491112 1551.212695,-365.471741 1544.740701,-423.738024 1558.688431,-425.472939 1568.572286,-360.823636 1573.106825,-360.170702 1573.299259,-343.728534 1573.065255,-326.896678 1564.175518,-329.192776 1555.808996,-327.339739 1558.141759,-302.155174 1558.068980,-275.010837 1565.518605,-228.381706 1553.205451,-199.681759 1547.653619,-188.029975 1543.661576,-176.935606 1530.910447,-145.865703 1523.229995,-136.615200 1515.444326,-134.195176 1511.641880,-128.151542 1505.472718,-130.527491 1502.871666,-131.526714 1498.152602,-129.643005 1458.980524,-113.993578 1429.564713,-96.204424 1408.288158,-80.646461 1370.201844,-67.133102 1336.863640,-60.932194 1280.321644,-40.494794 1234.666884,-13.012655 1197.250482,27.089597 1192.403893,43.602712 1185.019579,47.057541 1180.819531,55.326716 1166.003015,84.519263 1158.574857,99.154507 1165.687015,136.916930 1166.665740,167.086334 1163.923726,188.637210 1171.980328,200.077777 1170.092551,206.787564 1158.256788,204.439073 1151.415831,227.339501 1152.620176,248.264076 1168.735477,281.802664 1177.023599,291.273971 1189.731609,300.552480 1199.040479,310.990823 1200.709391,321.658037 1214.439077,333.093956 1222.020337,342.554804 1220.876517,394.274565 1224.452731,421.916529 1221.157084,443.234220 1227.386771,535.608737 1187.877319,538.801009 1176.532955,549.078620 1159.047797,581.855609 1135.659180,617.808205 1108.472346,639.546757 1093.207715,648.782187 1102.620424,664.270883 1089.848124,672.402850 1076.025485,668.376431 1050.516772,710.549993 1045.901297,730.823234 1043.568470,746.611238 1043.121946,769.828926 1041.314217,799.210892 1041.999250,812.782464"/>
    <poly id="131873092" type="landuse.grass" color="194,194,130" fill="1" layer="-3.00" shape="447.639464,430.198917 501.364160,462.663544 507.198237,463.514435 512.517477,462.819501 515.601085,459.734940 552.933684,390.725353 559.098610,375.144776 559.433477,369.837961 556.513844,363.343950 545.701145,357.191334 504.499276,335.148923 499.184719,333.963784 493.352162,334.826107 489.582142,338.245097 446.595621,419.586968 445.400383,424.382907 445.577101,427.798022 447.639464,430.198917"/>
    <poly id="133488373" type="amenity.parking" color="184,184,179" fill="1" layer="-1.00" shape="432.372409,825.286427 404.214489,838.130194 378.365075,852.874135 375.593390,867.494817 440.150744,1039.207259 502.092775,1015.862108 432.372409,825.286427"/>
    <poly id="138483558" type="building.university" color="255,230,230" fill="1" layer="-1.00" shape="702.002063,307.225741 712.800423,312.399749 715.455494,307.079651 724.652332,310.664348 720.933426,319.044731 730.791354,323.819168 730.259869,325.810987 735.862290,328.331083 741.444826,316.633812 736.782647,314.368704 756.456644,271.553653 725.802027,256.697268 702.002063,307.225741"/>
    <poly id="138483565" type="building.yes" color="255,230,230" fill="1" layer="-1.00" shape="347.577936,1040.457028 361.133724,1031.510167 351.700081,1016.768303 347.364371,1013.858010 344.540172,1015.930070 343.546249,1015.219094 342.219431,1014.897821 340.619642,1014.899442 338.753616,1015.290699 337.021527,1016.293682 335.956277,1017.551857 335.491162,1019.020794 335.092897,1020.678783 335.161113,1022.213927 335.762579,1023.737405 337.097416,1025.393636 347.577936,1040.457028"/>
    <poly id="138483580" type="building.university" color="255,230,230" fill="1" layer="-1.00" shape="716.112732,296.977792 730.772536,303.616696 743.807212,276.093144 729.013755,269.187332 716.112732,296.977792"/>
    <poly id="138483591" type="leisure.playground" color="207,245,201" fill="1" layer="-2.00" shape="762.597959,698.092037 773.386532,708.138822 766.094233,715.943988 760.696620,710.920604 755.305662,705.897219 762.597959,698.092037"/>
    <poly id="139431440" type="natural.island" color="140,196,107" fill="1" layer="-4.00" shape="1144.113719,240.917817 1150.284513,261.393211 1163.909322,282.540949 1166.936068,290.492579 1186.864211,323.672037 1186.880175,342.773164 1183.076884,362.789711 1186.359736,374.156428 1194.823498,394.618842 1195.926691,406.443498 1191.305145,420.542373 1192.410021,442.368150 1204.961229,456.007721 1208.810801,499.669045 1203.099642,510.131033 1187.023483,514.238339 1171.494962,527.434137 1158.431814,547.002375 1138.842102,582.039529 1118.690094,606.163892 1093.636209,627.566974 1083.831558,637.120384 1060.422995,672.161142 1040.289076,708.567521 1032.121822,714.937948 1026.104832,694.929798 1017.928064,690.386903 978.834161,558.081422 981.010353,546.253930 971.737589,538.986522 970.635869,529.431357 969.802667,514.424842 973.338021,501.683921 980.967570,497.583311 981.766893,481.663134 972.493201,473.483498 966.752455,449.848528 964.535150,407.543175 957.977668,395.278400 961.215243,354.792688 973.189032,332.499318 986.804271,319.293432 1016.760910,291.978299 1011.576449,286.987822 1034.184240,264.674217 1037.458485,273.315281 1061.429645,254.649531 1078.847876,228.713958 1093.815634,198.219412 1121.031406,152.718378 1137.223594,118.896643 1141.962111,116.823439 1144.499026,120.892941 1144.726696,129.959391 1156.202702,164.058087 1144.507892,194.538544 1140.978002,214.554890 1144.113719,240.917817"/>
    <poly id="144052181" type="landuse.grass" color="194,194,130" fill="1" layer="-3.00" shape="340.500721,562.134258 348.817908,553.059186 350.905964,554.503288 374.839337,568.607544 398.578396,581.866636 387.622390,625.264045 383.433926,643.179058 372.806609,675.084334 342.597046,624.386093 333.171234,624.773892 321.337248,630.114662 315.219604,625.582003 303.466642,618.852408 329.262686,576.796923 339.069336,564.004663 340.500721,562.134258"/>
    <poly id="146689812" type="leisure.pitch" color="207,245,201" fill="1" layer="-2.00" shape="391.152358,176.656119 406.419679,183.293416 418.146959,156.649136 401.612306,149.479083 391.152358,176.656119"/>
    <poly id="146689812#1" type="sport.basketball" color="79,230,125" fill="1" layer="-2.00" shape="391.152358,176.656119 406.419679,183.293416 418.146959,156.649136 401.612306,149.479083 391.152358,176.656119"/>
    <poly id="146689813" type="amenity.school" color="237,199,199" fill="1" layer="-1.00" shape="390.775435,219.631282 432.742706,124.817916 366.378415,91.165326 324.211122,191.519587 323.918343,192.076121 325.259008,192.675492 388.413842,224.773271 390.775435,219.631282"/>
    <poly id="146689814" type="leisure.park" color="207,245,201" fill="1" layer="-2.00" shape="350.422373,181.781130 363.501698,187.152284 371.157217,169.133652 389.852636,176.991164 405.940437,184.072625 388.398019,222.292474 340.732368,198.644886 324.877669,191.374288 366.845839,91.887962 373.929926,95.507485 375.124843,97.008120 375.726681,98.798594 375.728338,100.445050 375.503157,101.935988 375.171080,103.204540 374.386471,105.296776 369.191241,116.960709 364.915894,115.207313 352.284906,144.633815 356.706939,146.420427 355.516074,148.924691 353.564577,150.840114 352.032180,151.842887 350.160116,153.190871 348.441090,154.238333 346.528542,155.107996 344.729355,155.999795 342.636834,156.903016 340.991485,158.284148 339.153066,159.932469 337.921535,161.769296 336.538019,164.941243 336.353735,167.299870 337.369766,169.913149 338.344993,171.736614 338.348061,174.762534 337.636941,176.977073 336.811636,178.357375 332.089646,176.604461 326.262719,189.726422 341.330611,196.886575 347.663831,183.341381 349.240128,179.613005 344.704526,177.570647 345.443016,176.045813 351.465969,178.698528 350.422373,181.781130"/>
    <poly id="151672195" type="leisure.pitch" color="207,245,201" fill="1" layer="-2.00" shape="1388.125243,329.893667 1350.768644,276.480319 1433.125633,219.144999 1470.481756,272.558987 1388.125243,329.893667"/>
    <poly id="151672195#1" type="sport.soccer" color="79,230,125" fill="1" layer="-2.00" shape="1388.125243,329.893667 1350.768644,276.480319 1433.125633,219.144999 1470.481756,272.558987 1388.125243,329.893667"/>
    <poly id="161040146" type="landuse.industrial" color="209,209,204" fill="1" layer="-3.00" shape="1327.814133,201.262319 1420.400042,144.819653 1406.432386,119.143698 1389.976438,117.020776 1352.579164,131.412587 1313.461012,144.548992 1313.831138,157.041747 1317.062832,171.312141 1320.625669,182.878966 1322.780779,193.223210 1327.814133,201.262319"/>
    <poly id="161294553" type="building.yes" color="255,230,230" fill="1" layer="-1.00" shape="1410.405906,212.065298 1416.853307,221.160234 1357.517694,262.591270 1351.249955,253.140280 1410.405906,212.065298"/>
    <poly id="169469250" type="building.office" color="255,230,230" fill="1" layer="-1.00" shape="1368.228315,317.338567 1379.861815,334.094249 1370.566264,339.808631 1359.826375,323.408248 1368.228315,317.338567"/>
    <poly id="175499306" type="building.office" color="255,230,230" fill="1" layer="-1.00" shape="1358.415588,318.280881 1361.167947,317.010463 1358.396205,310.716089 1355.617202,312.019905 1358.415588,318.280881"/>
    <poly id="176837286" type="landuse.residential" color="235,235,227" fill="1" layer="-3.00" shape="1324.182541,220.121639 1359.363890,203.573179 1371.621674,233.655748 1389.045962,221.538203 1426.306913,195.621578 1447.776129,180.697646 1506.789634,264.309777 1528.360217,294.875089 1609.872900,238.311075 1655.942947,295.179801 1709.819503,252.254605 1711.260916,254.144760 1813.955123,185.009118 1851.276551,165.625984 1833.878152,130.973526 1825.428608,89.517646 1806.614957,71.842594 1733.524342,82.340835 1666.340921,92.624483 1636.275858,106.296700 1610.247948,106.694309 1567.886375,107.927604 1547.431798,107.876359 1525.896724,107.258666 1511.716288,107.781266 1500.569117,107.978955 1480.810996,111.910107 1458.842203,119.380720 1436.758021,132.658625 1421.500089,144.807663 1325.675243,202.743630 1324.158399,206.727502 1323.727198,217.652320 1324.182541,220.121639"/>
    <poly id="178611849" type="building.university" color="255,230,230" fill="1" layer="-1.00" shape="922.158218,253.737030 931.780966,234.026590 935.920233,225.545876 945.160250,210.163319 952.424913,200.055642 959.096072,189.748256 952.205587,185.760576 952.897611,184.247003 956.272315,178.092050 966.229988,182.510893 975.308779,173.113634 950.742432,167.205846 947.661473,166.285223 937.011963,163.646987 918.579971,158.657272 903.375268,161.674532 883.855009,199.493831 877.339089,211.714634 869.999408,227.151232 882.271678,232.913904 888.181533,236.246005 882.831212,247.197537 892.282288,251.794677 902.507138,256.880631 907.418158,246.685995 912.220415,249.051267 922.158218,253.737030"/>
    <poly id="188446668" type="building.yes" color="255,230,230" fill="1" layer="-1.00" shape="565.506615,217.801681 573.097605,201.263023 578.932239,188.530723 605.124791,200.475759 602.084360,207.109003 608.253963,209.928772 601.627570,224.386127 597.052074,222.299069 594.129385,233.493340 587.352385,243.779091 561.039205,230.988790 568.781815,219.611847 565.506615,217.801681"/>
    <poly id="188446670" type="building.school" color="255,230,230" fill="1" layer="-1.00" shape="483.823663,244.936613 490.496816,237.754612 504.550556,230.899132 496.827078,220.816580 494.596307,216.713747 491.675198,215.693140 488.249075,216.375112 483.789534,210.227526 481.044780,212.277174 471.779144,200.149232 467.327667,202.211695 458.568829,190.250150 454.803361,191.622214 453.599580,187.852126 450.338089,186.487014 440.915277,190.779371 435.073926,176.245165 431.648812,177.961776 429.246151,175.394355 418.790290,180.021525 417.940669,183.782527 419.310122,186.517842 422.917087,193.355949 416.579904,196.443812 426.022261,211.819889 432.192591,208.565333 441.966917,215.909065 440.428220,217.278932 442.829663,218.644890 440.604960,220.705170 451.407127,229.238246 453.291654,227.011437 456.040790,229.411656 459.804194,225.981522 483.823663,244.936613"/>
    <poly id="188469728" type="landuse.commercial" color="209,209,204" fill="1" layer="-3.00" shape="538.226244,177.278521 520.420026,219.558661 542.289832,228.848764 593.692552,250.692573 612.533943,258.539694 614.467678,251.929762 616.841847,245.753275 619.665396,235.415716 625.813133,215.351984 629.549198,204.079085 612.001005,196.230660 596.914490,190.082019 542.522341,166.194130 538.226244,177.278521"/>
    <poly id="188469729" type="landuse.brownfield" color="194,194,130" fill="1" layer="-3.00" shape="520.420026,219.558661 494.898203,279.801729 494.153964,282.294396 574.178183,326.259316 592.335742,337.344310 602.942067,343.819846 606.376749,338.231946 605.078572,326.229617 606.352727,313.145727 609.785392,305.421887 614.936867,296.405938 619.441894,287.613106 619.437592,283.107600 610.611967,270.467230 609.960771,265.750972 612.533943,258.539694 593.692552,250.692573 542.289832,228.848764 520.420026,219.558661"/>
    <poly id="202338783" type="waterway.stream" color="181,209,209" fill="0" layer="-4.00" shape="1424.072587,101.163390 1382.165298,128.730176 1319.220196,167.928485 1230.093902,270.159590 1195.395414,289.000297 1189.731609,300.552480"/>
    <poly id="202400520" type="building.university" color="255,230,230" fill="1" layer="-1.00" shape="584.421930,759.535159 565.952178,741.063673 598.320275,710.294891 640.607141,650.370113 664.938950,664.264078 630.862355,707.771842 584.421930,759.535159"/>
    <poly id="204612646" type="building.house" color="255,230,230" fill="1" layer="-1.00" shape="381.947212,722.666720 394.111848,714.833829 386.573997,703.182677 374.409332,711.004462 381.947212,722.666720"/>
    <poly id="204613517" type="landuse.residential" color="235,235,227" fill="1" layer="-3.00" shape="436.527981,613.178263 431.485105,616.754311 396.130740,660.632141 421.312599,697.374198 437.899187,684.942503 459.365965,666.164946 468.630346,657.634257 476.682448,650.072632 479.604397,645.441869 483.020381,641.544854 485.704039,638.627537 481.945301,632.935374 436.527981,613.178263"/>
    <poly id="204613520" type="landuse.residential" color="235,235,227" fill="1" layer="-3.00" shape="481.945301,632.935374 436.527981,613.178263 444.449499,594.914728 490.554096,615.182977 481.945301,632.935374"/>
    <poly id="204613889" type="building.house" color="255,230,230" fill="1" layer="-1.00" shape="430.467783,532.263044 435.837313,535.305880 440.628794,526.868583 435.259257,523.825740 430.467783,532.263044"/>
    <poly id="204613892" type="building.house" color="255,230,230" fill="1" layer="-1.00" shape="385.367247,503.839946 392.331659,508.405220 397.117594,501.135980 390.153176,496.570699 385.367247,503.839946"/>
    <poly id="204613894" type="building.house" color="255,230,230" fill="1" layer="-1.00" shape="391.912919,469.758353 400.091655,475.290271 405.243984,467.709181 397.065230,462.166129 391.912919,469.758353"/>
    <poly id="204613895" type="building.house" color="255,230,230" fill="1" layer="-1.00" shape="453.101939,506.831719 460.185795,510.907485 464.564866,503.327223 457.481002,499.251450 453.101939,506.831719"/>
    <poly id="204613897" type="building.house" color="255,230,230" fill="1" layer="-1.00" shape="353.984457,500.345022 349.472138,507.836523 357.656884,512.734253 362.169211,505.242760 353.984457,500.345022"/>
    <poly id="204613898" type="building.house" color="255,230,230" fill="1" layer="-1.00" shape="371.392015,455.283459 380.858676,462.037767 386.177809,454.612235 376.711142,447.857916 371.392015,455.283459"/>
    <poly id="204613899" type="building.house" color="255,230,230" fill="1" layer="-1.00" shape="404.534248,517.960264 409.910477,521.003064 414.695272,512.576872 409.325702,509.534059 404.534248,517.960264"/>
    <poly id="204613900" type="building.house" color="255,230,230" fill="1" layer="-1.00" shape="469.103756,515.826932 478.628831,521.235285 482.868079,513.810924 473.342995,508.402562 469.103756,515.826932"/>
    <poly id="204613902" type="building.house" color="255,230,230" fill="1" layer="-1.00" shape="362.165798,488.644677 370.344480,494.120921 375.210427,486.884952 367.025072,481.408707 362.165798,488.644677"/>
    <poly id="204613905" type="building.house" color="255,230,230" fill="1" layer="-1.00" shape="430.142652,493.582705 438.567245,498.391338 442.779851,491.033716 434.355249,486.225075 430.142652,493.582705"/>
    <poly id="204613908" type="building.house" color="255,230,230" fill="1" layer="-1.00" shape="357.222389,445.563617 364.914233,450.784474 369.940102,443.437092 362.241575,438.205109 357.222389,445.563617"/>
    <poly id="204613909" type="building.house" color="255,230,230" fill="1" layer="-1.00" shape="411.578916,482.765726 420.183721,487.752142 424.396430,480.516875 415.784951,475.530458 411.578916,482.765726"/>
    <poly id="204613912" type="building.house" color="255,230,230" fill="1" layer="-1.00" shape="418.007908,525.333625 423.377455,528.376448 428.168921,519.939137 422.799368,516.896309 418.007908,525.333625"/>
    <poly id="204613916" type="building.house" color="255,230,230" fill="1" layer="-1.00" shape="468.764131,543.227460 463.399996,552.366153 460.491748,550.666944 459.320424,552.659427 451.349409,547.994929 457.878197,536.874870 468.764131,543.227460"/>
    <poly id="204613917" type="building.house" color="255,230,230" fill="1" layer="-1.00" shape="446.534001,532.291591 441.662970,541.185075 443.150394,541.995704 441.473485,545.056667 448.103513,548.665628 449.780437,545.615792 450.961036,546.259857 455.838746,537.366375 446.534001,532.291591"/>
    <poly id="204614041" type="landuse.residential" color="235,235,227" fill="1" layer="-3.00" shape="574.178183,326.259316 494.153964,282.294396 391.929090,226.560825 388.413842,224.773271 325.259008,192.675492 249.515069,353.349544 248.730706,355.586423 309.248293,391.991149 373.508773,432.219779 371.268200,438.251634 445.191106,482.265043 466.609409,494.469926 469.539109,490.851500 500.222273,508.342772 513.970656,483.154073 520.700985,487.041154 547.423490,503.924736 576.254670,453.991354 572.111906,451.069547 589.153840,411.693872 590.544279,408.688861 564.637092,394.251690 582.325931,348.044791 586.418313,347.017379 592.335742,337.344310 574.178183,326.259316"/>
    <poly id="204687035" type="building.house" color="255,230,230" fill="1" layer="-1.00" shape="468.574356,290.040117 472.606784,282.271086 464.909350,278.296030 460.876921,286.053942 468.574356,290.040117"/>
    <poly id="204687037" type="building.house" color="255,230,230" fill="1" layer="-1.00" shape="524.904302,312.701556 515.892748,307.848846 512.598641,313.937286 521.610186,318.789990 524.904302,312.701556"/>
    <poly id="204687038" type="building.house" color="255,230,230" fill="1" layer="-1.00" shape="392.984648,248.697957 397.016999,240.939988 389.319425,236.953929 385.287094,244.723029 392.984648,248.697957"/>
    <poly id="204687039" type="building.house" color="255,230,230" fill="1" layer="-1.00" shape="556.427878,329.636132 547.416389,324.783362 544.122253,330.871780 553.133734,335.724544 556.427878,329.636132"/>
    <poly id="204687042" type="building.house" color="255,230,230" fill="1" layer="-1.00" shape="448.408486,358.566077 457.066204,362.940647 461.930099,353.357455 453.272368,348.982877 448.408486,358.566077"/>