<?xml version="1.0" encoding="UTF-8"?>

<!-- generated on Tue Mar 31 12:43:06 2020 by Eclipse SUMO netconvert Version v1_5_0+0995-d754181b35
<configuration xmlns:xsi="http://www.w3.org/2001/XMLSchema-instance" xsi:noNamespaceSchemaLocation="http://sumo.dlr.de/xsd/netconvertConfiguration.xsd">

    <input>
        <type-files value="/home/joseph/sumo/data/typemap/osmNetconvert.typ.xml"/>
        <osm-files value="osm_bbox.osm.xml"/>
    </input>

    <output>
        <output-file value="osm.net.xml"/>
        <output.street-names value="true"/>
        <output.original-names value="true"/>
    </output>

    <projection>
        <proj.utm value="true"/>
    </projection>

    <processing>
        <geometry.remove value="true"/>
        <roundabouts.guess value="true"/>
        <lefthand value="true"/>
    </processing>

    <tls_building>
        <tls.discard-simple value="true"/>
        <tls.join value="true"/>
        <tls.guess-signals value="true"/>
        <tls.default-type value="actuated"/>
    </tls_building>

    <ramp_guessing>
        <ramps.guess value="true"/>
    </ramp_guessing>

    <junctions>
        <junctions.join value="true"/>
        <junctions.corner-detail value="5"/>
    </junctions>

    <report>
        <verbose value="true"/>
        <aggregate-warnings value="5"/>
    </report>

</configuration>
-->

<net version="1.6" junctionCornerDetail="5" lefthand="true" limitTurnSpeed="5.50" xmlns:xsi="http://www.w3.org/2001/XMLSchema-instance" xsi:noNamespaceSchemaLocation="http://sumo.dlr.de/xsd/net_file.xsd">

    <location netOffset="-494830.63,-5903658.29" convBoundary="0.00,-0.00,1664.62,1192.57" origBoundary="-9.077549,53.282133,-9.052576,53.294186" projParameter="+proj=utm +zone=29 +ellps=WGS84 +datum=WGS84 +units=m +no_defs"/>

    <type id="highway.bridleway" priority="1" numLanes="1" speed="2.78" allow="pedestrian" oneway="1" width="2.00"/>
    <type id="highway.bus_guideway" priority="1" numLanes="1" speed="27.78" allow="bus" oneway="1"/>
    <type id="highway.cycleway" priority="1" numLanes="1" speed="8.33" allow="bicycle" oneway="0" width="1.00"/>
    <type id="highway.footway" priority="1" numLanes="1" speed="2.78" allow="pedestrian" oneway="1" width="2.00"/>
    <type id="highway.ford" priority="1" numLanes="1" speed="2.78" allow="army" oneway="0"/>
    <type id="highway.living_street" priority="2" numLanes="1" speed="2.78" disallow="tram rail_urban rail rail_electric rail_fast ship" oneway="0"/>
    <type id="highway.motorway" priority="14" numLanes="2" speed="39.44" allow="private emergency authority army vip passenger hov taxi bus coach delivery truck trailer motorcycle evehicle custom1 custom2" oneway="1"/>
    <type id="highway.motorway_link" priority="9" numLanes="1" speed="22.22" allow="private emergency authority army vip passenger hov taxi bus coach delivery truck trailer motorcycle evehicle custom1 custom2" oneway="1"/>
    <type id="highway.path" priority="1" numLanes="1" speed="2.78" allow="pedestrian bicycle" oneway="1" width="2.00"/>
    <type id="highway.pedestrian" priority="1" numLanes="1" speed="2.78" allow="pedestrian" oneway="1" width="2.00"/>
    <type id="highway.primary" priority="12" numLanes="2" speed="27.78" disallow="tram rail_urban rail rail_electric rail_fast ship" oneway="0"/>
    <type id="highway.primary_link" priority="7" numLanes="1" speed="22.22" disallow="tram rail_urban rail rail_electric rail_fast ship" oneway="0"/>
    <type id="highway.raceway" priority="15" numLanes="2" speed="83.33" allow="vip" oneway="0"/>
    <type id="highway.residential" priority="3" numLanes="1" speed="13.89" disallow="tram rail_urban rail rail_electric rail_fast ship" oneway="0"/>
    <type id="highway.secondary" priority="11" numLanes="1" speed="27.78" disallow="tram rail_urban rail rail_electric rail_fast ship" oneway="0"/>
    <type id="highway.secondary_link" priority="6" numLanes="1" speed="22.22" disallow="tram rail_urban rail rail_electric rail_fast ship" oneway="0"/>
    <type id="highway.service" priority="1" numLanes="1" speed="5.56" allow="pedestrian delivery bicycle" oneway="0"/>
    <type id="highway.stairs" priority="1" numLanes="1" speed="1.39" allow="pedestrian" oneway="1" width="2.00"/>
    <type id="highway.step" priority="1" numLanes="1" speed="1.39" allow="pedestrian" oneway="1" width="2.00"/>
    <type id="highway.steps" priority="1" numLanes="1" speed="1.39" allow="pedestrian" oneway="1" width="2.00"/>
    <type id="highway.tertiary" priority="10" numLanes="1" speed="22.22" disallow="tram rail_urban rail rail_electric rail_fast ship" oneway="0"/>
    <type id="highway.tertiary_link" priority="5" numLanes="1" speed="22.22" disallow="tram rail_urban rail rail_electric rail_fast ship" oneway="0"/>
    <type id="highway.track" priority="1" numLanes="1" speed="5.56" disallow="tram rail_urban rail rail_electric rail_fast ship" oneway="0"/>
    <type id="highway.trunk" priority="13" numLanes="2" speed="27.78" disallow="pedestrian bicycle tram rail_urban rail rail_electric rail_fast ship" oneway="0"/>
    <type id="highway.trunk_link" priority="8" numLanes="1" speed="22.22" disallow="pedestrian bicycle tram rail_urban rail rail_electric rail_fast ship" oneway="0"/>
    <type id="highway.unclassified" priority="4" numLanes="1" speed="13.89" disallow="tram rail_urban rail rail_electric rail_fast ship" oneway="0"/>
    <type id="highway.unsurfaced" priority="1" numLanes="1" speed="8.33" disallow="tram rail_urban rail rail_electric rail_fast ship" oneway="0"/>
    <type id="railway.highspeed" priority="21" numLanes="1" speed="69.44" allow="rail_fast" oneway="1"/>
    <type id="railway.light_rail" priority="19" numLanes="1" speed="27.78" allow="rail_urban" oneway="1"/>
    <type id="railway.preserved" priority="16" numLanes="1" speed="27.78" allow="rail" oneway="1"/>
    <type id="railway.rail" priority="20" numLanes="1" speed="44.44" allow="rail" oneway="1"/>
    <type id="railway.subway" priority="18" numLanes="1" speed="27.78" allow="rail_urban" oneway="1"/>
    <type id="railway.tram" priority="17" numLanes="1" speed="13.89" allow="tram" oneway="1"/>

    <edge id=":1109773467_0" function="internal">
        <lane id=":1109773467_0_0" index="0" disallow="tram rail_urban rail rail_electric rail_fast ship" speed="3.65" length="4.67" shape="1663.29,816.92 1664.63,817.47 1665.52,817.35 1665.95,816.57 1665.95,815.13"/>
    </edge>
    <edge id=":1111150236_0" function="internal">
        <lane id=":1111150236_0_0" index="0" disallow="tram rail_urban rail rail_electric rail_fast ship" speed="3.65" length="4.67" shape="1635.93,118.10 1637.28,117.60 1637.85,116.92 1637.65,116.05 1636.67,114.99"/>
    </edge>
    <edge id=":1249813271_0" function="internal">
        <lane id=":1249813271_0_0" index="0" allow="pedestrian delivery bicycle" speed="5.56" length="8.41" shape="789.90,286.54 789.07,288.89 788.42,290.47 787.63,291.99 786.35,294.13"/>
    </edge>
    <edge id=":1249813271_1" function="internal">
        <lane id=":1249813271_1_0" index="0" allow="pedestrian delivery bicycle" speed="5.56" length="9.86" shape="789.90,286.54 789.38,289.16 789.80,291.37 791.16,293.16 793.47,294.54"/>
    </edge>
    <edge id=":1249813271_2" function="internal">
        <lane id=":1249813271_2_0" index="0" allow="pedestrian delivery bicycle" speed="3.65" length="4.67" shape="789.90,286.54 790.26,287.93 790.89,288.57 791.77,288.46 792.92,287.59"/>
    </edge>
    <edge id=":1249813271_3" function="internal">
        <lane id=":1249813271_3_0" index="0" allow="pedestrian delivery bicycle" speed="5.11" length="4.93" shape="794.70,291.59 793.55,290.90 792.87,290.01 792.66,288.90 792.92,287.59"/>
    </edge>
    <edge id=":1249813271_4" function="internal">
        <lane id=":1249813271_4_0" index="0" allow="pedestrian delivery bicycle" speed="5.56" length="9.66" shape="794.70,291.59 792.15,290.89 789.90,291.08 787.97,292.16 786.35,294.13"/>
    </edge>
    <edge id=":1249813271_5" function="internal">
        <lane id=":1249813271_5_0" index="0" allow="pedestrian delivery bicycle" speed="3.65" length="4.67" shape="794.70,291.59 793.29,291.86 792.61,292.44 792.67,293.33 793.47,294.54"/>
    </edge>
    <edge id=":1249813271_6" function="internal">
        <lane id=":1249813271_6_0" index="0" allow="pedestrian delivery bicycle" speed="5.31" length="5.04" shape="789.09,295.79 789.92,294.79 790.93,294.25 792.11,294.16 793.47,294.54"/>
    </edge>
    <edge id=":1249813271_7" function="internal">
        <lane id=":1249813271_7_0" index="0" allow="pedestrian delivery bicycle" speed="5.56" length="9.08" shape="789.09,295.79 790.47,293.48 791.33,291.84 792.03,290.13 792.92,287.59"/>
    </edge>
    <edge id=":1249813271_8" function="internal">
        <lane id=":1249813271_8_0" index="0" allow="pedestrian delivery bicycle" speed="3.65" length="4.67" shape="789.09,295.79 789.03,294.35 788.55,293.59 787.66,293.52 786.35,294.13"/>
    </edge>
    <edge id=":1249813295_0" function="internal">
        <lane id=":1249813295_0_0" index="0" allow="pedestrian delivery bicycle" speed="5.56" length="8.64" shape="826.73,304.31 824.24,303.69 822.55,303.20 820.91,302.58 818.54,301.59"/>
    </edge>
    <edge id=":1249813295_1" function="internal">
        <lane id=":1249813295_1_0" index="0" allow="pedestrian delivery bicycle" speed="5.56" length="9.79" shape="826.73,304.31 824.21,304.09 822.07,304.73 820.33,306.23 818.97,308.60"/>
    </edge>
    <edge id=":1249813295_2" function="internal">
        <lane id=":1249813295_2_0" index="0" allow="pedestrian delivery bicycle" speed="3.65" length="4.67" shape="826.73,304.31 825.38,304.81 824.80,305.49 825.01,306.36 825.99,307.42"/>
    </edge>
    <edge id=":1249813295_3" function="internal">
        <lane id=":1249813295_3_0" index="0" allow="pedestrian delivery bicycle" speed="5.42" length="5.21" shape="821.93,309.83 822.66,308.52 823.58,307.69 824.69,307.32 825.99,307.42"/>
    </edge>
    <edge id=":1249813295_4" function="internal">
        <lane id=":1249813295_4_0" index="0" allow="pedestrian delivery bicycle" speed="5.56" length="10.14" shape="821.93,309.83 822.62,307.14 822.29,304.87 820.93,303.02 818.54,301.59"/>
    </edge>
    <edge id=":1249813295_5" function="internal">
        <lane id=":1249813295_5_0" index="0" allow="pedestrian delivery bicycle" speed="3.65" length="4.67" shape="821.93,309.83 821.65,308.41 821.06,307.74 820.17,307.80 818.97,308.60"/>
    </edge>
    <edge id=":1249813295_6" function="internal">
        <lane id=":1249813295_6_0" index="0" allow="pedestrian delivery bicycle" speed="5.04" length="5.00" shape="817.31,304.54 818.48,305.25 819.15,306.16 819.31,307.27 818.97,308.60"/>
    </edge>
    <edge id=":1249813295_7" function="internal">
        <lane id=":1249813295_7_0" index="0" allow="pedestrian delivery bicycle" speed="5.56" length="9.16" shape="817.31,304.54 819.82,305.59 821.56,306.25 823.35,306.77 825.99,307.42"/>
    </edge>
    <edge id=":1249813295_8" function="internal">
        <lane id=":1249813295_8_0" index="0" allow="pedestrian delivery bicycle" speed="3.65" length="4.67" shape="817.31,304.54 818.72,304.27 819.40,303.69 819.34,302.79 818.54,301.59"/>
    </edge>
    <edge id=":1249813304_0" function="internal">
        <lane id=":1249813304_0_0" index="0" allow="pedestrian delivery bicycle" speed="3.65" length="4.67" shape="808.23,334.42 808.51,335.83 809.10,336.51 809.99,336.45 811.19,335.65"/>
    </edge>
    <edge id=":1249813320_0" function="internal">
        <lane id=":1249813320_0_0" index="0" allow="pedestrian delivery bicycle" speed="3.65" length="4.67" shape="852.51,313.74 853.86,313.24 854.44,312.56 854.24,311.69 853.25,310.63"/>
    </edge>
    <edge id=":1467562996_0" function="internal">
        <lane id=":1467562996_0_0" index="0" allow="pedestrian delivery bicycle" speed="5.56" length="10.19" shape="409.66,836.51 406.84,837.54 404.91,838.34 403.03,839.28 400.40,840.72"/>
    </edge>
    <edge id=":1467562996_1" function="internal">
        <lane id=":1467562996_1_0" index="0" allow="pedestrian delivery bicycle" speed="5.56" length="10.58" shape="409.66,836.51 407.12,837.87 405.67,839.73 405.33,842.09 406.10,844.95"/>
    </edge>
    <edge id=":1467562996_2" function="internal">
        <lane id=":1467562996_2_0" index="0" allow="pedestrian delivery bicycle" speed="3.65" length="4.67" shape="409.66,836.51 408.80,837.67 408.69,838.56 409.34,839.18 410.74,839.53"/>
    </edge>
    <edge id=":1467562996_3" function="internal">
        <lane id=":1467562996_3_0" index="0" allow="pedestrian delivery bicycle" speed="5.04" length="5.21" shape="409.04,843.71 408.66,842.28 408.81,841.11 409.51,840.19 410.74,839.53"/>
    </edge>
    <edge id=":1467562996_4" function="internal">
        <lane id=":1467562996_4_0" index="0" allow="pedestrian delivery bicycle" speed="5.56" length="10.70" shape="409.04,843.71 407.51,841.16 405.55,839.81 403.19,839.66 400.40,840.72"/>
    </edge>
    <edge id=":1467562996_5" function="internal">
        <lane id=":1467562996_5_0" index="0" allow="pedestrian delivery bicycle" speed="3.65" length="4.67" shape="409.04,843.71 407.84,842.91 406.95,842.86 406.37,843.54 406.10,844.95"/>
    </edge>
    <edge id=":1467562996_6" function="internal">
        <lane id=":1467562996_6_0" index="0" allow="pedestrian delivery bicycle" speed="4.93" length="5.13" shape="401.95,843.52 403.29,843.01 404.42,843.08 405.36,843.73 406.10,844.95"/>
    </edge>
    <edge id=":1467562996_7" function="internal">
        <lane id=":1467562996_7_0" index="0" allow="pedestrian delivery bicycle" speed="5.56" length="9.67" shape="401.95,843.52 404.47,842.14 406.22,841.26 408.04,840.51 410.74,839.53"/>
    </edge>
    <edge id=":1467562996_8" function="internal">
        <lane id=":1467562996_8_0" index="0" allow="pedestrian delivery bicycle" speed="3.65" length="4.67" shape="401.95,843.52 402.61,842.24 402.58,841.34 401.84,840.84 400.40,840.72"/>
    </edge>
    <edge id=":1467562997_0" function="internal">
        <lane id=":1467562997_0_0" index="0" allow="pedestrian delivery bicycle" speed="5.56" length="14.92" shape="452.43,839.84 450.12,842.60 447.02,844.56 443.53,846.15 440.08,847.78"/>
    </edge>
    <edge id=":1467562997_1" function="internal">
        <lane id=":1467562997_1_0" index="0" allow="pedestrian delivery bicycle" speed="5.56" length="15.83" shape="452.43,839.84 444.26,853.39"/>
    </edge>
    <edge id=":1467562997_2" function="internal">
        <lane id=":1467562997_2_0" index="0" allow="pedestrian delivery bicycle" speed="3.65" length="4.67" shape="452.43,839.84 452.57,841.27 453.09,842.00 453.98,842.03 455.25,841.35"/>
    </edge>
    <edge id=":1467562997_3" function="internal">
        <lane id=":1467562997_3_0" index="0" allow="pedestrian delivery bicycle" speed="5.56" length="16.02" shape="446.99,855.07 455.25,841.35"/>
    </edge>
    <edge id=":1467562997_4" function="internal">
        <lane id=":1467562997_4_0" index="0" allow="pedestrian delivery bicycle" speed="5.56" length="21.84" shape="446.99,855.07 450.38,848.40 450.36,844.96 446.92,844.75 440.08,847.78"/>
    </edge>
    <edge id=":1467562997_5" function="internal">
        <lane id=":1467562997_5_0" index="0" allow="pedestrian delivery bicycle" speed="3.65" length="4.67" shape="446.99,855.07 446.94,853.63 446.46,852.87 445.57,852.79 444.26,853.39"/>
    </edge>
    <edge id=":1467562997_6" function="internal">
        <lane id=":1467562997_6_0" index="0" allow="pedestrian delivery bicycle" speed="4.90" length="8.40" shape="441.60,850.59 444.24,849.42 445.56,849.51 445.57,850.83 444.26,853.39"/>
    </edge>
    <edge id=":1467562997_7" function="internal">
        <lane id=":1467562997_7_0" index="0" allow="pedestrian delivery bicycle" speed="5.56" length="16.69" shape="441.60,850.59 445.26,848.76 449.19,846.73 452.74,844.32 455.25,841.35"/>
    </edge>
    <edge id=":1467562997_8" function="internal">
        <lane id=":1467562997_8_0" index="0" allow="pedestrian delivery bicycle" speed="3.65" length="4.67" shape="441.60,850.59 442.28,849.31 442.25,848.42 441.51,847.91 440.08,847.78"/>
    </edge>
    <edge id=":1467562998_0" function="internal">
        <lane id=":1467562998_0_0" index="0" allow="pedestrian delivery bicycle" speed="5.56" length="9.16" shape="391.17,845.83 383.02,850.03"/>
    </edge>
    <edge id=":1467562998_1" function="internal">
        <lane id=":1467562998_1_0" index="0" allow="pedestrian delivery bicycle" speed="5.56" length="10.07" shape="391.17,845.83 389.13,847.41 388.00,849.38 387.79,851.75 388.50,854.51"/>
    </edge>
    <edge id=":1467562998_2" function="internal">
        <lane id=":1467562998_2_0" index="0" allow="pedestrian delivery bicycle" speed="3.65" length="4.67" shape="391.17,845.83 390.51,847.11 390.55,848.01 391.28,848.51 392.72,848.63"/>
    </edge>
    <edge id=":1467562998_3" function="internal">
        <lane id=":1467562998_3_0" index="0" allow="pedestrian delivery bicycle" speed="5.43" length="5.39" shape="391.48,853.33 391.07,851.80 391.14,850.51 391.69,849.45 392.72,848.63"/>
    </edge>
    <edge id=":1467562998_4" function="internal">
        <lane id=":1467562998_4_0" index="0" allow="pedestrian delivery bicycle" speed="5.56" length="10.53" shape="391.48,853.33 390.03,850.80 388.14,849.41 385.80,849.15 383.02,850.03"/>
    </edge>
    <edge id=":1467562998_5" function="internal">
        <lane id=":1467562998_5_0" index="0" allow="pedestrian delivery bicycle" speed="3.65" length="4.67" shape="391.48,853.33 390.29,852.51 389.40,852.43 388.81,853.10 388.50,854.51"/>
    </edge>
    <edge id=":1467562998_6" function="internal">
        <lane id=":1467562998_6_0" index="0" allow="pedestrian delivery bicycle" speed="4.96" length="5.09" shape="384.42,852.91 385.76,852.49 386.89,852.61 387.80,853.28 388.50,854.51"/>
    </edge>
    <edge id=":1467562998_7" function="internal">
        <lane id=":1467562998_7_0" index="0" allow="pedestrian delivery bicycle" speed="5.56" length="9.34" shape="384.42,852.91 392.72,848.63"/>
    </edge>
    <edge id=":1467562998_8" function="internal">
        <lane id=":1467562998_8_0" index="0" allow="pedestrian delivery bicycle" speed="3.65" length="4.67" shape="384.42,852.91 385.15,851.67 385.16,850.78 384.45,850.23 383.02,850.03"/>
    </edge>
    <edge id=":1467563002_0" function="internal">
        <lane id=":1467563002_0_0" index="0" allow="pedestrian delivery bicycle" speed="5.56" length="11.61" shape="440.61,859.33 434.68,869.31"/>
    </edge>
    <edge id=":1467563002_1" function="internal">
        <lane id=":1467563002_1_0" index="0" allow="pedestrian delivery bicycle" speed="5.56" length="12.37" shape="440.61,859.33 439.94,861.27 439.88,863.93 440.42,867.30 441.56,871.38"/>
    </edge>
    <edge id=":1467563002_2" function="internal">
        <lane id=":1467563002_2_0" index="0" allow="pedestrian delivery bicycle" speed="3.65" length="4.67" shape="440.61,859.33 440.67,860.77 441.14,861.53 442.03,861.61 443.34,861.01"/>
    </edge>
    <edge id=":1467563002_3" function="internal">
        <lane id=":1467563002_3_0" index="0" allow="pedestrian delivery bicycle" speed="5.56" length="9.63" shape="444.60,870.39 443.61,867.00 443.07,864.30 442.98,862.31 443.34,861.01"/>
    </edge>
    <edge id=":1467563002_4" function="internal">
        <lane id=":1467563002_4_0" index="0" allow="pedestrian delivery bicycle" speed="5.56" length="15.40" shape="444.60,870.39 442.57,865.99 440.24,864.34 437.61,865.45 434.68,869.31"/>
    </edge>
    <edge id=":1467563002_5" function="internal">
        <lane id=":1467563002_5_0" index="0" allow="pedestrian delivery bicycle" speed="3.65" length="4.67" shape="444.60,870.39 443.47,869.50 442.59,869.36 441.95,869.99 441.56,871.38"/>
    </edge>
    <edge id=":1467563002_6" function="internal">
        <lane id=":1467563002_6_0" index="0" allow="pedestrian delivery bicycle" speed="4.66" length="6.40" shape="437.44,870.93 438.65,869.33 439.75,868.87 440.72,869.55 441.56,871.38"/>
    </edge>
    <edge id=":1467563002_7" function="internal">
        <lane id=":1467563002_7_0" index="0" allow="pedestrian delivery bicycle" speed="5.56" length="11.55" shape="437.44,870.93 443.34,861.01"/>
    </edge>
    <edge id=":1467563002_8" function="internal">
        <lane id=":1467563002_8_0" index="0" allow="pedestrian delivery bicycle" speed="3.65" length="4.67" shape="437.44,870.93 437.36,869.49 436.87,868.74 435.98,868.68 434.68,869.31"/>
    </edge>
    <edge id=":1467563003_0" function="internal">
        <lane id=":1467563003_0_0" index="0" allow="pedestrian delivery bicycle" speed="5.56" length="10.08" shape="462.21,926.66 461.66,923.72 461.23,921.71 460.68,919.73 459.77,916.89"/>
    </edge>
    <edge id=":1467563003_1" function="internal">
        <lane id=":1467563003_1_0" index="0" allow="pedestrian delivery bicycle" speed="5.56" length="11.08" shape="462.21,926.66 461.21,923.70 459.53,921.96 457.16,921.42 454.12,922.10"/>
    </edge>
    <edge id=":1467563003_2" function="internal">
        <lane id=":1467563003_2_0" index="0" allow="pedestrian delivery bicycle" speed="3.65" length="4.67" shape="462.21,926.66 461.21,925.62 460.35,925.38 459.63,925.91 459.07,927.24"/>
    </edge>
    <edge id=":1467563003_3" function="internal">
        <lane id=":1467563003_3_0" index="0" allow="pedestrian delivery bicycle" speed="4.87" length="5.23" shape="455.25,925.09 456.69,924.77 457.80,925.03 458.59,925.85 459.07,927.24"/>
    </edge>
    <edge id=":1467563003_4" function="internal">
        <lane id=":1467563003_4_0" index="0" allow="pedestrian delivery bicycle" speed="5.56" length="10.57" shape="455.25,925.09 457.94,923.67 459.59,921.83 460.20,919.57 459.77,916.89"/>
    </edge>
    <edge id=":1467563003_5" function="internal">
        <lane id=":1467563003_5_0" index="0" allow="pedestrian delivery bicycle" speed="3.65" length="4.67" shape="455.25,925.09 456.09,923.92 456.18,923.03 455.53,922.42 454.12,922.10"/>
    </edge>
    <edge id=":1467563003_6" function="internal">
        <lane id=":1467563003_6_0" index="0" allow="pedestrian delivery bicycle" speed="5.36" length="5.58" shape="456.73,917.88 456.92,919.22 456.55,920.37 455.61,921.33 454.12,922.10"/>
    </edge>
    <edge id=":1467563003_7" function="internal">
        <lane id=":1467563003_7_0" index="0" allow="pedestrian delivery bicycle" speed="5.56" length="9.66" shape="456.73,917.88 457.60,920.61 458.13,922.50 458.54,924.42 459.07,927.24"/>
    </edge>
    <edge id=":1467563003_8" function="internal">
        <lane id=":1467563003_8_0" index="0" allow="pedestrian delivery bicycle" speed="3.65" length="4.67" shape="456.73,917.88 457.86,918.77 458.75,918.90 459.38,918.27 459.77,916.89"/>
    </edge>
    <edge id=":1467563013_0" function="internal">
        <lane id=":1467563013_0_0" index="0" allow="pedestrian delivery bicycle" speed="5.08" length="4.82" shape="490.28,1015.09 489.18,1015.21 488.23,1014.85 487.40,1014.00 486.70,1012.66"/>
    </edge>
    <edge id=":1467563013_1" function="internal">
        <lane id=":1467563013_1_0" index="0" allow="pedestrian delivery bicycle" speed="5.56" length="8.83" shape="490.28,1015.09 481.88,1017.81"/>
    </edge>
    <edge id=":1467563013_2" function="internal">
        <lane id=":1467563013_2_0" index="0" allow="pedestrian delivery bicycle" speed="3.66" length="4.71" shape="490.28,1015.09 489.50,1016.32 489.47,1017.22 490.16,1017.79 491.59,1018.03"/>
    </edge>
    <edge id=":1467563013_3" function="internal">
        <lane id=":1467563013_3_0" index="0" allow="pedestrian delivery bicycle" speed="5.56" length="9.16" shape="482.88,1020.85 491.59,1018.03"/>
    </edge>
    <edge id=":1467563013_4" function="internal">
        <lane id=":1467563013_4_0" index="0" allow="pedestrian delivery bicycle" speed="5.56" length="10.45" shape="482.88,1020.85 485.47,1019.56 486.96,1017.77 487.38,1015.47 486.70,1012.66"/>
    </edge>
    <edge id=":1467563013_5" function="internal">
        <lane id=":1467563013_5_0" index="0" allow="pedestrian delivery bicycle" speed="3.65" length="4.67" shape="482.88,1020.85 483.77,1019.71 483.90,1018.83 483.27,1018.19 481.88,1017.81"/>
    </edge>
    <edge id=":1467563013_6" function="internal">
        <lane id=":1467563013_6_0" index="0" allow="pedestrian delivery bicycle" speed="4.98" length="5.07" shape="483.73,1013.84 484.06,1015.20 483.86,1016.32 483.13,1017.19 481.88,1017.81"/>
    </edge>
    <edge id=":1467563013_7" function="internal">
        <lane id=":1467563013_7_0" index="0" allow="pedestrian delivery bicycle" speed="5.56" length="10.00" shape="483.73,1013.84 485.11,1016.32 486.87,1017.85 489.04,1018.42 491.59,1018.03"/>
    </edge>
    <edge id=":1467563013_8" function="internal">
        <lane id=":1467563013_8_0" index="0" allow="pedestrian delivery bicycle" speed="3.65" length="4.67" shape="483.73,1013.84 484.92,1014.66 485.81,1014.73 486.40,1014.07 486.70,1012.66"/>
    </edge>
    <edge id=":1467563014_0" function="internal">
        <lane id=":1467563014_0_0" index="0" allow="pedestrian delivery bicycle" speed="5.22" length="5.21" shape="475.31,1019.99 473.98,1020.21 472.86,1019.92 471.94,1019.12 471.22,1017.82"/>
    </edge>
    <edge id=":1467563014_1" function="internal">
        <lane id=":1467563014_1_0" index="0" allow="pedestrian delivery bicycle" speed="5.56" length="9.40" shape="475.31,1019.99 466.40,1022.97"/>
    </edge>
    <edge id=":1467563014_2" function="internal">
        <lane id=":1467563014_2_0" index="0" allow="pedestrian delivery bicycle" speed="3.65" length="4.67" shape="475.31,1019.99 474.42,1021.12 474.30,1022.01 474.93,1022.64 476.32,1023.02"/>
    </edge>
    <edge id=":1467563014_3" function="internal">
        <lane id=":1467563014_3_0" index="0" allow="pedestrian delivery bicycle" speed="5.56" length="9.38" shape="467.42,1026.00 476.32,1023.02"/>
    </edge>
    <edge id=":1467563014_4" function="internal">
        <lane id=":1467563014_4_0" index="0" allow="pedestrian delivery bicycle" speed="5.56" length="10.41" shape="467.42,1026.00 469.99,1024.70 471.47,1022.91 471.89,1020.61 471.22,1017.82"/>
    </edge>
    <edge id=":1467563014_5" function="internal">
        <lane id=":1467563014_5_0" index="0" allow="pedestrian delivery bicycle" speed="3.65" length="4.67" shape="467.42,1026.00 468.30,1024.86 468.43,1023.97 467.79,1023.34 466.40,1022.97"/>
    </edge>
    <edge id=":1467563014_6" function="internal">
        <lane id=":1467563014_6_0" index="0" allow="pedestrian delivery bicycle" speed="4.99" length="5.06" shape="468.25,1018.99 468.57,1020.35 468.37,1021.46 467.64,1022.34 466.40,1022.97"/>
    </edge>
    <edge id=":1467563014_7" function="internal">
        <lane id=":1467563014_7_0" index="0" allow="pedestrian delivery bicycle" speed="5.56" length="10.16" shape="468.25,1018.99 469.63,1021.47 471.43,1022.96 473.66,1023.48 476.32,1023.02"/>
    </edge>
    <edge id=":1467563014_8" function="internal">
        <lane id=":1467563014_8_0" index="0" allow="pedestrian delivery bicycle" speed="3.65" length="4.67" shape="468.25,1018.99 469.43,1019.81 470.32,1019.89 470.92,1019.23 471.22,1017.82"/>
    </edge>
    <edge id=":1467563015_0" function="internal">
        <lane id=":1467563015_0_0" index="0" allow="pedestrian delivery bicycle" speed="5.45" length="5.81" shape="461.95,1024.47 460.58,1024.67 459.39,1024.29 458.39,1023.31 457.57,1021.74"/>
    </edge>
    <edge id=":1467563015_1" function="internal">
        <lane id=":1467563015_1_0" index="0" allow="pedestrian delivery bicycle" speed="5.56" length="9.51" shape="461.95,1024.47 452.91,1027.42"/>
    </edge>
    <edge id=":1467563015_2" function="internal">
        <lane id=":1467563015_2_0" index="0" allow="pedestrian delivery bicycle" speed="3.65" length="4.67" shape="461.95,1024.47 461.07,1025.62 460.95,1026.50 461.59,1027.13 462.98,1027.50"/>
    </edge>
    <edge id=":1467563015_3" function="internal">
        <lane id=":1467563015_3_0" index="0" allow="pedestrian delivery bicycle" speed="5.56" length="9.58" shape="453.87,1030.47 462.98,1027.50"/>
    </edge>
    <edge id=":1467563015_4" function="internal">
        <lane id=":1467563015_4_0" index="0" allow="pedestrian delivery bicycle" speed="5.56" length="10.97" shape="453.87,1030.47 456.47,1029.18 457.96,1027.29 458.32,1024.81 457.57,1021.74"/>
    </edge>
    <edge id=":1467563015_5" function="internal">
        <lane id=":1467563015_5_0" index="0" allow="pedestrian delivery bicycle" speed="3.65" length="4.67" shape="453.87,1030.47 454.78,1029.35 454.92,1028.46 454.29,1027.82 452.91,1027.42"/>
    </edge>
    <edge id=":1467563015_6" function="internal">
        <lane id=":1467563015_6_0" index="0" allow="pedestrian delivery bicycle" speed="5.03" length="5.24" shape="454.73,1023.28 455.08,1024.73 454.90,1025.90 454.17,1026.80 452.91,1027.42"/>
    </edge>
    <edge id=":1467563015_7" function="internal">
        <lane id=":1467563015_7_0" index="0" allow="pedestrian delivery bicycle" speed="5.56" length="10.46" shape="454.73,1023.28 456.15,1025.87 458.00,1027.43 460.28,1027.98 462.98,1027.50"/>
    </edge>
    <edge id=":1467563015_8" function="internal">
        <lane id=":1467563015_8_0" index="0" allow="pedestrian delivery bicycle" speed="3.66" length="4.71" shape="454.73,1023.28 456.01,1023.96 456.92,1023.93 457.43,1023.19 457.57,1021.74"/>
    </edge>
    <edge id=":1469221604_0" function="internal">
        <lane id=":1469221604_0_0" index="0" allow="pedestrian delivery bicycle" speed="5.41" length="5.44" shape="424.01,925.93 422.42,926.18 421.13,925.97 420.15,925.29 419.46,924.16"/>
    </edge>
    <edge id=":1469221604_1" function="internal">
        <lane id=":1469221604_1_0" index="0" allow="pedestrian delivery bicycle" speed="5.56" length="10.68" shape="424.01,925.93 421.29,927.12 419.70,928.88 419.25,931.21 419.92,934.10"/>
    </edge>
    <edge id=":1469221604_2" function="internal">