<?xml version="1.0" encoding="UTF-8"?>

<!-- generated on Mon Jul 13 17:46:46 2020 by Eclipse SUMO duarouter Version v1_5_0+0995-d754181b35
<configuration xmlns:xsi="http://www.w3.org/2001/XMLSchema-instance" xsi:noNamespaceSchemaLocation="http://sumo.dlr.de/xsd/duarouterConfiguration.xsd">

    <input>
        <net-file value="osm.net.xml"/>
        <route-files value="osm.passenger.trips.xml"/>
    </input>

    <output>
        <output-file value="osm.passenger.trips.xml.tmp"/>
        <write-trips value="true"/>
    </output>

    <time>
        <begin value="0"/>
        <end value="3600.0"/>
    </time>

    <report>
        <no-warnings value="true"/>
        <ignore-errors value="true"/>
        <no-step-log value="true"/>
    </report>

</configuration>
-->

<routes xmlns:xsi="http://www.w3.org/2001/XMLSchema-instance" xsi:noNamespaceSchemaLocation="http://sumo.dlr.de/xsd/routes_file.xsd">
    <vType id="veh_passenger" vClass="passenger"/>
    <trip id="veh0" type="veh_passenger" depart="0.00" departLane="best" from="24404765#2" to="-131269083#2"/>
    <trip id="veh1" type="veh_passenger" depart="10.53" departLane="best" from="-25767857#2" to="-25752988#0"/>
    <trip id="veh2" type="veh_passenger" depart="21.07" departLane="best" from="25753421#3" to="25752982#0"/>
    <trip id="veh3" type="veh_passenger" depart="31.60" departLane="best" from="476193324#1" to="-203503835#0"/>
    <trip id="veh4" type="veh_passenger" depart="42.14" departLane="best" from="-476193325#1" to="-131875033#0"/>
    <trip id="veh5" type="veh_passenger" depart="52.67" departLane="best" from="-25753171" to="131875033#4"/>
    <trip id="veh6" type="veh_passenger" depart="63.21" departLane="best" from="-131269083#2" to="-25743230#1"/>
    <trip id="veh7" type="veh_passenger" depart="73.74" departLane="best" from="25742967#0" to="133314775"/>
    <trip id="veh8" type="veh_passenger" depart="84.27" departLane="best" from="-25753171" to="204613545"/>
    <trip id="veh9" type="veh_passenger" depart="94.81" departLane="best" from="291302741#0" to="-109078457#1"/>
    <trip id="veh10" type="veh_passenger" depart="105.34" departLane="best" from="-291302741#5" to="-24404765#0"/>
    <trip id="veh11" type="veh_passenger" depart="115.88" departLane="best" from="770894332" to="-291302741#1"/>
    <trip id="veh12" type="veh_passenger" depart="126.41" departLane="best" from="-204720141#1" to="-204613518#0"/>
    <trip id="veh13" type="veh_passenger" depart="136.94" departLane="best" from="292332293#0" to="204759281#1"/>
    <trip id="veh14" type="veh_passenger" depart="147.48" departLane="best" from="289264194#1" to="25753421#3"/>
    <trip id="veh15" type="veh_passenger" depart="158.01" departLane="best" from="133314777" to="ENG_SOUTH"/>
    <trip id="veh16" type="veh_passenger" depart="168.55" departLane="best" from="-43204200#0" to="133488380#1"/>
    <trip id="veh17" type="veh_passenger" depart="179.08" departLane="best" from="25752988#1" to="-131875033#4"/>
    <trip id="veh18" type="veh_passenger" depart="189.62" departLane="best" from="-25753445#1" to="-25767857#0"/>
    <trip id="veh19" type="veh_passenger" depart="200.15" departLane="best" from="-204613545" to="-25753002#0"/>
    <trip id="veh20" type="veh_passenger" depart="210.68" departLane="best" from="-204759281#0" to="-25767551#0"/>
    <trip id="veh21" type="veh_passenger" depart="221.22" departLane="best" from="24404765#0" to="-291302741#6"/>
    <trip id="veh22" type="veh_passenger" depart="231.75" departLane="best" from="-32946158#2" to="-25752982#0"/>
    <trip id="veh23" type="veh_passenger" depart="242.29" departLane="best" from="-25767551#3" to="476193326#0"/>
    <trip id="veh24" type="veh_passenger" depart="252.82" departLane="best" from="24404765#3" to="211659538"/>
    <trip id="veh25" type="veh_passenger" depart="263.36" departLane="best" from="-25743008" to="-32946158#1"/>
    <trip id="veh26" type="veh_passenger" depart="273.89" departLane="best" from="gneE6" to="24404765#2"/>
    <trip id="veh27" type="veh_passenger" depart="284.42" departLane="best" departSpeed="max" from="203503835#0" to="25752982#1"/>
    <trip id="veh28" type="veh_passenger" depart="294.96" departLane="best" from="291302741#6" to="25767857#3"/>
    <trip id="veh29" type="veh_passenger" depart="305.49" departLane="best" from="-25753445#1" to="-131875033#2"/>
    <trip id="veh30" type="veh_passenger" depart="316.03" departLane="best" from="-291302741#1" to="-25753445#5"/>
    <trip id="veh31" type="veh_passenger" depart="326.56" departLane="best" from="25742967#1" to="-43204200#0"/>
    <trip id="veh32" type="veh_passenger" depart="337.09" departLane="best" from="-25767551#2" to="-25753445#0"/>
    <trip id="veh33" type="veh_passenger" depart="347.63" departLane="best" from="204613519" to="476193324#1"/>
    <trip id="veh34" type="veh_passenger" depart="358.16" departLane="best" from="gneE9" to="131875033#5"/>
    <trip id="veh35" type="veh_passenger" depart="368.70" departLane="best" from="-204720141#1" to="-131875033#4"/>
    <trip id="veh36" type="veh_passenger" depart="379.23" departLane="best" from="25771747#2" to="-476193324#4"/>
    <trip id="veh37" type="veh_passenger" depart="389.77" departLane="best" from="-203503835#1" to="-32946158#1"/>
    <trip id="veh38" type="veh_passenger" depart="400.30" departLane="best" from="ENG_SOUTH" to="292332293#2"/>
    <trip id="veh39" type="veh_passenger" depart="410.83" departLane="best" from="-131269083#0" to="25753421#1"/>
    <trip id="veh40" type="veh_passenger" depart="421.37" departLane="best" from="25752982#0" to="133314768#6"/>
    <trip id="veh41" type="veh_passenger" depart="431.90" departLane="best" from="-25767551#3" to="24404765#3"/>
    <trip id="veh42" type="veh_passenger" depart="442.44" departLane="best" from="131875033#5" to="-25742967#1"/>
    <trip id="veh43" type="veh_passenger" depart="452.97" departLane="best" from="476193324#5" to="32946158#1"/>
    <trip id="veh44" type="veh_passenger" depart="463.50" departLane="best" from="-25771747#2" to="24404765#2"/>
    <trip id="veh45" type="veh_passenger" depart="474.04" departLane="best" from="25767857#2" to="133314768#4"/>
    <trip id="veh46" type="veh_passenger" depart="484.57" departLane="best" from="-131269083#1" to="476193325#1"/>
    <trip id="veh47" type="veh_passenger" depart="495.11" departLane="best" from="-289264194#1" to="-138483487"/>
    <trip id="veh48" type="veh_passenger" depart="505.64" departLane="best" from="32946158#3" to="476193326#3"/>
    <trip id="veh49" type="veh_passenger" depart="516.18" departLane="best" from="-204720141#0" to="131269083#2"/>
    <trip id="veh50" type="veh_passenger" depart="526.71" departLane="best" from="-204613518#0" to="25767551#3"/>
    <trip id="veh51" type="veh_passenger" depart="537.24" departLane="best" from="25767551#2" to="-204759281#1"/>
    <trip id="veh52" type="veh_passenger" depart="547.78" departLane="best" from="-25767551#2" to="32946158#2"/>
    <trip id="veh53" type="veh_passenger" depart="558.31" departLane="best" from="133488380#0" to="25753421#3"/>
    <trip id="veh54" type="veh_passenger" depart="568.85" departLane="best" from="-25752988#0" to="-25771747#1"/>
    <trip id="veh55" type="veh_passenger" depart="579.38" departLane="best" from="gneE8" to="25742967#0"/>
    <trip id="veh56" type="veh_passenger" depart="589.92" departLane="best" from="-476193326#2" to="133314768#1"/>
    <trip id="veh57" type="veh_passenger" depart="600.45" departLane="best" from="-211659541#1" to="-25752988#0"/>
    <trip id="veh58" type="veh_passenger" depart="610.98" departLane="best" from="-291302741#5" to="204613545"/>
    <trip id="veh59" type="veh_passenger" depart="621.52" departLane="best" from="-25753445#1" to="-25752982#3"/>
    <trip id="veh60" type="veh_passenger" depart="632.05" departLane="best" from="-204613518#0" to="24404765#0"/>
    <trip id="veh61" type="veh_passenger" depart="642.59" departLane="best" from="32946158#0" to="-203503835#0"/>
    <trip id="veh62" type="veh_passenger" depart="653.12" departLane="best" from="-25753445#3" to="25743230#1"/>
    <trip id="veh63" type="veh_passenger" depart="663.65" departLane="best" from="-25753002#0" to="-211659538"/>
    <trip id="veh64" type="veh_passenger" depart="674.19" departLane="best" from="476193326#0" to="204613518#0"/>
    <trip id="veh65" type="veh_passenger" depart="684.72" departLane="best" from="131269083#2" to="25771747#2"/>
    <trip id="veh66" type="veh_passenger" depart="695.26" departLane="best" from="289264194#1" to="-25743230#0"/>
    <trip id="veh67" type="veh_passenger" depart="705.79" departLane="best" from="-476193325#1" to="-770894332"/>
    <trip id="veh68" type="veh_passenger" depart="716.33" departLane="best" from="25753421#2" to="25752969"/>
    <trip id="veh69" type="veh_passenger" depart="726.86" departLane="best" from="-476193324#3" to="-291302741#2"/>
    <trip id="veh70" type="veh_passenger" depart="737.39" departLane="best" from="32946158#0" to="-25753445#1"/>
    <trip id="veh71" type="veh_passenger" depart="747.93" departLane="best" from="-476193325#0" to="-25767551#0"/>
    <trip id="veh72" type="veh_passenger" depart="758.46" departLane="best" from="-476193326#3" to="32946158#0"/>
    <trip id="veh73" type="veh_passenger" depart="769.00" departLane="best" from="138483509" to="-133314768#1"/>
    <trip id="veh74" type="veh_passenger" depart="779.53" departLane="best" from="gneE9" to="291302741#4"/>
    <trip id="veh75" type="veh_passenger" depart="790.07" departLane="best" from="292332293#0" to="-24404765#3"/>
    <trip id="veh76" type="veh_passenger" depart="800.60" departLane="best" from="131875033#3" to="-25752982#1"/>
    <trip id="veh77" type="veh_passenger" depart="811.13" departLane="best" from="-476193324#3" to="-138483487"/>
    <trip id="veh78" type="veh_passenger" depart="821.67" departLane="best" from="-43204200#0" to="gneE1"/>
    <trip id="veh79" type="veh_passenger" depart="832.20" departLane="best" from="-25767551#2" to="25771747#2"/>
    <trip id="veh80" type="veh_passenger" depart="842.74" departLane="best" from="770894332" to="gneE8"/>
    <trip id="veh81" type="veh_passenger" depart="853.27" departLane="best" departSpeed="max" from="203503835#0" to="25753421#1"/>
    <trip id="veh82" type="veh_passenger" depart="863.80" departLane="best" from="ENG_SOUTH" to="204613518#1"/>
    <trip id="veh84" type="veh_passenger" depart="884.87" departLane="best" from="-25742967#2" to="770894332"/>
    <trip id="veh85" type="veh_passenger" depart="895.41" departLane="best" from="-476193325#0" to="204613519"/>
    <trip id="veh86" type="veh_passenger" depart="905.94" departLane="best" from="133314768#5" to="476193325#2"/>
    <trip id="veh88" type="veh_passenger" depart="927.01" departLane="best" from="-204613518#0" to="-476193326#3"/>
    <trip id="veh89" type="veh_passenger" depart="937.54" departLane="best" from="-204613518#0" to="-25752982#1"/>
    <trip id="veh90" type="veh_passenger" depart="948.08" departLane="best" from="-25767551#2" to="476193325#2"/>
    <trip id="veh91" type="veh_passenger" depart="958.61" departLane="best" from="331948874" to="32946158#3"/>
    <trip id="veh92" type="veh_passenger" depart="969.15" departLane="best" from="291302741#4" to="25753002#0"/>
    <trip id="veh93" type="veh_passenger" depart="979.68" departLane="best" from="211659538" to="gneE10"/>
    <trip id="veh94" type="veh_passenger" depart="990.21" departLane="best" from="25742967#0" to="-109078457#1"/>
    <trip id="veh95" type="veh_passenger" depart="1000.75" departLane="best" from="291302741#1" to="-25767857#3"/>
    <trip id="veh96" type="veh_passenger" depart="1011.28" departLane="best" from="25742967#2" to="476193326#0"/>
    <trip id="veh97" type="veh_passenger" depart="1021.82" departLane="best" from="-211659538" to="133488380#1"/>
    <trip id="veh98" type="veh_passenger" depart="1032.35" departLane="best" from="-25767857#0" to="204759281#1"/>
    <trip id="veh99" type="veh_passenger" depart="1042.89" departLane="best" from="131875033#3" to="476193324#3"/>
    <trip id="veh100" type="veh_passenger" depart="1053.42" departLane="best" from="291302741#6" to="-203503835#1"/>
    <trip id="veh101" type="veh_passenger" depart="1063.95" departLane="best" from="-109078457#0" to="25767857#2"/>
    <trip id="veh102" type="veh_passenger" depart="1074.49" departLane="best" from="25753445#1" to="133488380#0"/>
    <trip id="veh103" type="veh_passenger" depart="1085.02" departLane="best" from="-476193326#1" to="-109078915"/>
    <trip id="veh104" type="veh_passenger" depart="1095.56" departLane="best" from="476193324#3" to="133314775"/>
    <trip id="veh105" type="veh_passenger" depart="1106.09" departLane="best" from="-25742967#0" to="-204759281#1"/>
    <trip id="veh106" type="veh_passenger" depart="1116.63" departLane="best" from="25771747#2" to="292332293#2"/>
    <trip id="veh108" type="veh_passenger" depart="1137.69" departLane="best" from="-476193324#4" to="211659541#0"/>
    <trip id="veh109" type="veh_passenger" depart="1148.23" departLane="best" from="-25742967#1" to="476193325#1"/>
    <trip id="veh110" type="veh_passenger" depart="1158.76" departLane="best" from="32946158#1" to="PARK_N_RIDE_SOUTH"/>
    <trip id="veh111" type="veh_passenger" depart="1169.30" departLane="best" from="291302741#0" to="32946158#3"/>
    <trip id="veh112" type="veh_passenger" depart="1179.83" departLane="best" from="-131269083#2" to="25753445#3"/>
    <trip id="veh113" type="veh_passenger" depart="1190.36" departLane="best" from="291302741#0" to="-25753445#5"/>
    <trip id="veh114" type="veh_passenger" depart="1200.90" departLane="best" from="25771747#1" to="-204613545"/>
    <trip id="veh115" type="veh_passenger" depart="1211.43" departLane="best" from="32946158#2" to="292332293#2"/>
    <trip id="veh116" type="veh_passenger" depart="1221.97" departLane="best" from="-25753445#0" to="291302741#0"/>
    <trip id="veh117" type="veh_passenger" depart="1232.50" departLane="best" from="109078457#1" to="-25771747#0"/>
    <trip id="veh118" type="veh_passenger" depart="1243.04" departLane="best" from="25771747#2" to="-25752988#1"/>
    <trip id="veh119" type="veh_passenger" depart="1253.57" departLane="best" from="ENG_NORTH" to="-25767551#0"/>
    <trip id="veh120" type="veh_passenger" depart="1264.10" departLane="best" from="476193326#0" to="-204720141#1"/>
    <trip id="veh121" type="veh_passenger" depart="1274.64" departLane="best" from="ENG_SOUTH" to="-25742967#1"/>
    <trip id="veh122" type="veh_passenger" depart="1285.17" departLane="best" from="204759281#1" to="131875033#5"/>
    <trip id="veh123" type="veh_passenger" depart="1295.71" departLane="best" from="-476193324#0" to="204613518#1"/>
    <trip id="veh124" type="veh_passenger" depart="1306.24" departLane="best" from="133488380#0" to="25753421#1"/>
    <trip id="veh125" type="veh_passenger" depart="1316.78" departLane="best" from="25753445#1" to="25743230#1"/>
    <trip id="veh126" type="veh_passenger" depart="1327.31" departLane="best" from="-32946158#1" to="-203503835#0"/>
    <trip id="veh127" type="veh_passenger" depart="1337.84" departLane="best" from="-291302741#0" to="291302741#6"/>
    <trip id="veh128" type="veh_passenger" depart="1348.38" departLane="best" from="25753171" to="-25767857#3"/>
    <trip id="veh129" type="veh_passenger" depart="1358.91" departLane="best" from="-476193324#3" to="-25767857#2"/>
    <trip id="veh130" type="veh_passenger" depart="1369.45" departLane="best" from="476193324#3" to="211659539#1"/>
    <trip id="veh131" type="veh_passenger" depart="1379.98" departLane="best" from="-25771747#2" to="133314777"/>
    <trip id="veh132" type="veh_passenger" depart="1390.51" departLane="best" from="-109078456" to="-25767551#3"/>
    <trip id="veh133" type="veh_passenger" depart="1401.05" departLane="best" from="-476193326#1" to="204613518#1"/>
    <trip id="veh134" type="veh_passenger" depart="1411.58" departLane="best" from="25742967#0" to="-770894332"/>
    <trip id="veh135" type="veh_passenger" depart="1422.12" departLane="best" from="131269083#2" to="476193324#2"/>
    <trip id="veh136" type="veh_passenger" depart="1432.65" departLane="best" from="25771747#2" to="-25742967#0"/>
    <trip id="veh137" type="veh_passenger" depart="1443.19" departLane="best" from="24404765#0" to="-291302741#1"/>
    <trip id="veh139" type="veh_passenger" depart="1464.25" departLane="best" from="25743230#1" to="-25752988#0"/>
    <trip id="veh140" type="veh_passenger" depart="1474.79" departLane="best" from="-25752982#3" to="-131269083#2"/>
    <trip id="veh141" type="veh_passenger" depart="1485.32" departLane="best" from="292332293#0" to="-203503835#0"/>
    <trip id="veh142" type="veh_passenger" depart="1495.86" departLane="best" from="131875033#4" to="-25753445#0"/>
    <trip id="veh143" type="veh_passenger" depart="1506.39" departLane="best" from="25742967#1" to="-109078457#1"/>
    <trip id="veh145" type="veh_passenger" depart="1527.46" departLane="best" from="-25743230#1" to="770894332"/>
    <trip id="veh146" type="veh_passenger" depart="1537.99" departLane="best" from="25743008" to="gneE10"/>
    <trip id="veh147" type="veh_passenger" depart="1548.53" departLane="best" from="204720141#0" to="476193326#3"/>
    <trip id="veh148" type="veh_passenger" depart="1559.06" departLane="best" from="476193324#1" to="211659539#0"/>
    <trip id="veh149" type="veh_passenger" depart="1569.60" departLane="best" from="25753171" to="131875033#4"/>
    <trip id="veh150" type="veh_passenger" depart="1580.13" departLane="best" from="291302741#4" to="133314777"/>
    <trip id="veh151" type="veh_passenger" depart="1590.66" departLane="best" from="131875033#0" to="-25753445#4"/>
    <trip id="veh153" type="veh_passenger" depart="1611.73" departLane="best" from="-204613519" to="-25767551#3"/>
    <trip id="veh154" type="veh_passenger" depart="1622.27" departLane="best" from="133488380#1" to="-211659539#1"/>
    <trip id="veh155" type="veh_passenger" depart="1632.80" departLane="best" from="25752988#1" to="-203503835#0"/>
    <trip id="veh156" type="veh_passenger" depart="1643.34" departLane="best" from="-476193324#4" to="133314772"/>
    <trip id="veh157" type="veh_passenger" depart="1653.87" departLane="best" from="-476193324#6" to="-25752982#0"/>
    <trip id="veh158" type="veh_passenger" depart="1664.40" departLane="best" from="204613519" to="25752988#0"/>
    <trip id="veh159" type="veh_passenger" depart="1674.94" departLane="best" from="292332293#2" to="25767857#0"/>
    <trip id="veh160" type="veh_passenger" depart="1685.47" departLane="best" from="292332293#2" to="58953037"/>
    <trip id="veh161" type="veh_passenger" depart="1696.01" departLane="best" from="138483487" to="204759281#1"/>
    <trip id="veh162" type="veh_passenger" depart="1706.54" departLane="best" from="-476193326#2" to="-131875033#0"/>
    <trip id="veh163" type="veh_passenger" depart="1717.07" departLane="best" from="-291302741#4" to="25752982#0"/>
    <trip id="veh164" type="veh_passenger" depart="1727.61" departLane="best" from="131269083#0" to="-204759281#1"/>
    <trip id="veh165" type="veh_passenger" depart="1738.14" departLane="best" from="-131269083#2" to="24404765#3"/>
    <trip id="veh166" type="veh_passenger" depart="1748.68" departLane="best" from="-133314768#1" to="-32946158#1"/>
    <trip id="veh167" type="veh_passenger" depart="1759.21" departLane="best" from="25767551#0" to="-32946158#1"/>
    <trip id="veh168" type="veh_passenger" depart="1769.75" departLane="best" from="gneE9" to="-291302741#4"/>
    <trip id="veh169" type="veh_passenger" depart="1780.28" departLane="best" from="25742967#0" to="25771747#1"/>
    <trip id="veh170" type="veh_passenger" depart="1790.81" departLane="best" from="25742967#0" to="25767551#0"/>
    <trip id="veh171" type="veh_passenger" depart="1801.35" departLane="best" from="476193326#3" to="-25743230#1"/>
    <trip id="veh172" type="veh_passenger" depart="1811.88" departLane="best" from="-131269083#1" to="-24404765#0"/>
    <trip id="veh173" type="veh_passenger" depart="1822.42" departLane="best" departSpeed="max" from="203503835#0" to="-25752982#3"/>
    <trip id="veh174" type="veh_passenger" depart="1832.95" departLane="best" from="25752988#0" to="25767857#0"/>
    <trip id="veh175" type="veh_passenger" depart="1843.49" departLane="best" from="-25743230#0" to="204759281#1"/>
    <trip id="veh176" type="veh_passenger" depart="1854.02" departLane="best" from="291302741#2" to="ENG_NORTH"/>
    <trip id="veh177" type="veh_passenger" depart="1864.55" departLane="best" from="-211659538" to="-131269083#2"/>
    <trip id="veh178" type="veh_passenger" depart="1875.09" departLane="best" from="-291302741#0" to="25752982#0"/>
    <trip id="veh179" type="veh_passenger" depart="1885.62" departLane="best" from="770894332" to="-43204200#0"/>
    <trip id="veh180" type="veh_passenger" depart="1896.16" departLane="best" from="25753002#1" to="-203503835#0"/>
    <trip id="veh181" type="veh_passenger" depart="1906.69" departLane="best" from="25752982#3" to="211659898"/>
    <trip id="veh182" type="veh_passenger" depart="1917.22" departLane="best" from="-204759281#1" to="25767857#2"/>
    <trip id="veh183" type="veh_passenger" depart="1927.76" departLane="best" from="292332293#0" to="204720141#1"/>
    <trip id="veh184" type="veh_passenger" depart="1938.29" departLane="best" from="-211659541#1" to="gneE0"/>
    <trip id="veh185" type="veh_passenger" depart="1948.83" departLane="best" from="-476193326#1" to="-292332293#1"/>
    <trip id="veh186" type="veh_passenger" depart="1959.36" departLane="best" from="292332293#0" to="291302741#1"/>
    <trip id="veh187" type="veh_passenger" depart="1969.90" departLane="best" from="24404765#0" to="291302741#2"/>
    <trip id="veh188" type="veh_passenger" depart="1980.43" departLane="best" from="25753421#3" to="ENG_NORTH"/>
    <trip id="veh189" type="veh_passenger" depart="1990.96" departLane="best" from="-25767857#0" to="289264194#0"/>
    <trip id="veh190" type="veh_passenger" depart="2001.50" departLane="best" from="-476193326#2" to="25753445#1"/>
    <trip id="veh191" type="veh_passenger" depart="2012.03" departLane="best" from="-25767551#3" to="292332293#0"/>
    <trip id="veh192" type="veh_passenger" depart="2022.57" departLane="best" from="291302741#4" to="-203503835#0"/>
    <trip id="veh193" type="veh_passenger" depart="2033.10" departLane="best" from="331948874" to="-25753445#0"/>
    <trip id="veh194" type="veh_passenger" depart="2043.63" departLane="best" from="-43204200#0" to="-131875033#0"/>
    <trip id="veh195" type="veh_passenger" depart="2054.17" departLane="best" from="292332293#0" to="-25742967#2"/>
    <trip id="veh197" type="veh_passenger" depart="2075.24" departLane="best" from="-109078915" to="476193326#3"/>
    <trip id="veh198" type="veh_passenger" depart="2085.77" departLane="best" from="-204720141#0" to="25753421#1"/>
    <trip id="veh199" type="veh_passenger" depart="2096.31" departLane="best" from="131875033#3" to="25767551#2"/>
    <trip id="veh200" type="veh_passenger" depart="2106.84" departLane="best" from="25752982#3" to="25742967#0"/>
    <trip id="veh201" type="veh_passenger" depart="2117.37" departLane="best" from="131875033#4" to="25771867#1"/>
    <trip id="veh202" type="veh_passenger" depart="2127.91" departLane="best" from="25752982#3" to="-25771747#0"/>
    <trip id="veh203" type="veh_passenger" depart="2138.44" departLane="best" from="204613518#1" to="109078457#0"/>
    <trip id="veh204" type="veh_passenger" depart="2148.98" departLane="best" from="133314772" to="-476193324#4"/>
    <trip id="veh205" type="veh_passenger" depart="2159.51" departLane="best" from="25753445#4" to="-291302741#0"/>
    <trip id="veh206" type="veh_passenger" depart="2170.05" departLane="best" from="133314777" to="25767551#3"/>
    <trip id="veh207" type="veh_passenger" depart="2180.58" departLane="best" from="131875033#2" to="25753421#2"/>
    <trip id="veh208" type="veh_passenger" depart="2191.11" departLane="best" from="-25767857#3" to="-204613519"/>
    <trip id="veh209" type="veh_passenger" depart="2201.65" departLane="best" from="-25752969" to="-131269083#0"/>
    <trip id="veh211" type="veh_passenger" depart="2222.72" departLane="best" from="32946158#1" to="131875033#0"/>
    <trip id="veh212" type="veh_passenger" depart="2233.25" departLane="best" from="32946158#2" to="204613518#0"/>
    <trip id="veh213" type="veh_passenger" depart="2243.78" departLane="best" from="131269083#1" to="-476193325#1"/>
    <trip id="veh214" type="veh_passenger" depart="2254.32" departLane="best" from="-25752982#0" to="-133314768#3"/>
    <trip id="veh215" type="veh_passenger" depart="2264.85" departLane="best" from="476193326#2" to="109078915"/>
    <trip id="veh216" type="veh_passenger" depart="2275.39" departLane="best" from="291302741#2" to="-476193324#0"/>
    <trip id="veh217" type="veh_passenger" depart="2285.92" departLane="best" from="-204613519" to="24404765#0"/>
    <trip id="veh218" type="veh_passenger" depart="2296.46" departLane="best" from="-133314768#3" to="-211659541#2"/>
    <trip id="veh219" type="veh_passenger" depart="2306.99" departLane="best" departSpeed="max" from="203503835#0" to="-25767857#3"/>
    <trip id="veh220" type="veh_passenger" depart="2317.52" departLane="best" from="gneE7" to="-204720141#1"/>
    <trip id="veh221" type="veh_passenger" depart="2328.06" departLane="best" from="25767551#2" to="204759281#1"/>
    <trip id="veh222" type="veh_passenger" depart="2338.59" departLane="best" from="25771747#1" to="-25752988#0"/>
    <trip id="veh223" type="veh_passenger" depart="2349.13" departLane="best" from="133314768#5" to="-476193326#2"/>
    <trip id="veh224" type="veh_passenger" depart="2359.66" departLane="best" from="-476193326#3" to="292332293#2"/>
    <trip id="veh225" type="veh_passenger" depart="2370.20" departLane="best" from="gneE6" to="-25771747#0"/>
    <trip id="veh226" type="veh_passenger" depart="2380.73" departLane="best" from="25753445#1" to="476193326#3"/>
    <trip id="veh227" type="veh_passenger" depart="2391.26" departLane="best" from="25742967#2" to="-24404765#0"/>
    <trip id="veh228" type="veh_passenger" depart="2401.80" departLane="best" from="-25743230#1" to="-203503835#0"/>
    <trip id="veh229" type="veh_passenger" depart="2412.33" departLane="best" from="-109078456" to="-476193326#2"/>
    <trip id="veh230" type="veh_passenger" depart="2422.87" departLane="best" from="204613545" to="-25767857#0"/>
    <trip id="veh231" type="veh_passenger" depart="2433.40" departLane="best" from="25742967#2" to="476193325#2"/>
    <trip id="veh232" type="veh_passenger" depart="2443.93" departLane="best" from="-476193325#1" to="133314775"/>
    <trip id="veh233" type="veh_passenger" depart="2454.47" departLane="best" from="291302741#3" to="-203503835#0"/>
    <trip id="veh234" type="veh_passenger" depart="2465.00" departLane="best" from="-25743008" to="-25771747#0"/>
    <trip id="veh235" type="veh_passenger" depart="2475.54" departLane="best" from="-25771747#0" to="-204759281#0"/>
    <trip id="veh236" type="veh_passenger" depart="2486.07" departLane="best" from="476193326#2" to="131875033#3"/>
    <trip id="veh237" type="veh_passenger" depart="2496.61" departLane="best" from="131875033#4" to="-203503835#0"/>
    <trip id="veh238" type="veh_passenger" depart="2507.14" departLane="best" from="-291302741#2" to="-25753445#1"/>
    <trip id="veh239" type="veh_passenger" depart="2517.67" departLane="best" from="58953037" to="gneE9"/>
    <trip id="veh241" type="veh_passenger" depart="2538.74" departLane="best" from="-131875033#3" to="25767551#1"/>
    <trip id="veh242" type="veh_passenger" depart="2549.28" departLane="best" from="476193324#5" to="-25742967#2"/>
    <trip id="veh243" type="veh_passenger" depart="2559.81" departLane="best" from="204613519" to="24404765#2"/>
    <trip id="veh244" type="veh_passenger" depart="2570.34" departLane="best" from="131875033#4" to="-203503835#1"/>
    <trip id="veh245" type="veh_passenger" depart="2580.88" departLane="best" from="-291302741#3" to="25752988#0"/>
    <trip id="veh246" type="veh_passenger" depart="2591.41" departLane="best" from="-25771747#0" to="476193326#2"/>
    <trip id="veh247" type="veh_passenger" depart="2601.95" departLane="best" from="109078456" to="-25771747#1"/>
    <trip id="veh248" type="veh_passenger" depart="2612.48" departLane="best" from="-291302741#2" to="ENG_SOUTH"/>
    <trip id="veh249" type="veh_passenger" depart="2623.02" departLane="best" from="-476193324#3" to="131875033#5"/>
    <trip id="veh250" type="veh_passenger" depart="2633.55" departLane="best" from="gneE10" to="25742967#2"/>
    <trip id="veh251" type="veh_passenger" depart="2644.08" departLane="best" from="138483487" to="-476193324#2"/>
    <trip id="veh252" type="veh_passenger" depart="2654.62" departLane="best" from="-25752982#0" to="-291302741#6"/>
    <trip id="veh254" type="veh_passenger" depart="2675.69" departLane="best" from="25767551#0" to="-25752969"/>
    <trip id="veh255" type="veh_passenger" depart="2686.22" departLane="best" from="-211659541#1" to="ENG_SOUTH"/>
    <trip id="veh256" type="veh_passenger" depart="2696.76" departLane="best" from="204759281#1" to="-25753171"/>
    <trip id="veh257" type="veh_passenger" depart="2707.29" departLane="best" from="-25742967#2" to="133488380#0"/>
    <trip id="veh258" type="veh_passenger" depart="2717.82" departLane="best" from="gneE7" to="476193324#4"/>
    <trip id="veh259" type="veh_passenger" depart="2728.36" departLane="best" from="25753002#1" to="131875033#4"/>
    <trip id="veh260" type="veh_passenger" depart="2738.89" departLane="best" from="-25767857#0" to="291302741#4"/>
    <trip id="veh261" type="veh_passenger" depart="2749.43" departLane="best" from="PARK_N_RIDE_SOUTH" to="-25753445#0"/>
    <trip id="veh262" type="veh_passenger" depart="2759.96" departLane="best" departSpeed="max" from="203503835#0" to="-32946158#1"/>