<?xml version="1.0" encoding="UTF-8"?>

<!-- generated on Mon Jul 13 17:46:45 2020 by Eclipse SUMO duarouter Version v1_5_0+0995-d754181b35
<configuration xmlns:xsi="http://www.w3.org/2001/XMLSchema-instance" xsi:noNamespaceSchemaLocation="http://sumo.dlr.de/xsd/duarouterConfiguration.xsd">

    <input>
        <net-file value="osm.net.xml"/>
        <route-files value="osm.pedestrian.trips.xml"/>
    </input>

    <output>
        <output-file value="osm.pedestrian.rou.xml"/>
        <alternatives-output value="osm.pedestrian.rou.alt.xml"/>
    </output>

    <time>
        <begin value="0"/>
        <end value="3600.0"/>
    </time>

    <report>
        <no-warnings value="true"/>
        <ignore-errors value="true"/>
        <no-step-log value="true"/>
    </report>

</configuration>
-->

<routes xmlns:xsi="http://www.w3.org/2001/XMLSchema-instance" xsi:noNamespaceSchemaLocation="http://sumo.dlr.de/xsd/routes_file.xsd">
    <vType id="ped_pedestrian" vClass="pedestrian"/>
    <person id="ped0" type="ped_pedestrian" depart="0.00">
        <walk edges="25743230#1 -25742967#2 291302741#2 -131875033#0 -131269083#0 -131269083#1 -131269083#2"/>
    </person>
    <person id="ped1" type="ped_pedestrian" depart="9.80">
        <walk edges="-291302741#3 -291302741#2 -291302741#1 291302741#0 292332293#2 -25767551#0 25767551#1 -25767551#3 -25767551#2"/>
    </person>
    <person id="ped2" type="ped_pedestrian" depart="19.61">
        <walk edges="25767551#0 292332293#2 291302741#0 291302741#1 291302741#2 291302741#3 291302741#4 291302741#5 291302741#6 476193325#0 476193325#1 476193325#2 476193324#1 476193324#2 -24404765#3 -24404765#2 -24404765#0 25753445#1"/>
    </person>
    <person id="ped3" type="ped_pedestrian" depart="29.41">
        <walk edges="476193325#1 476193325#0 291302741#6 -291302741#6 -476193325#0 -476193325#1 -476193324#0 -476193324#1 -204720141#0 144832711#1 -204759281#1"/>
    </person>
    <person id="ped4" type="ped_pedestrian" depart="39.21">
        <walk edges="133314768#3 133314768#4 133314768#5 133314768#6 PARK_N_RIDE_SOUTH -131269083#2 -131269083#1 -131269083#0 -131875033#2"/>
    </person>
    <person id="ped5" type="ped_pedestrian" depart="49.02">
        <walk edges="-25767551#1 -25767551#0 292332293#2 291302741#0 291302741#1 -131875033#0 -131875033#2 -131875033#3 -131875033#4 -25771747#0 -25771747#1 138483453#4 138483528#1"/>
    </person>
    <person id="ped6" type="ped_pedestrian" depart="58.82">
        <walk edges="-131875033#0 -131875033#2 -131875033#3 -131875033#4 -25771747#0 -25771747#1 -25771747#2 25753421#3 25753421#1 32946158#0 32946158#1 32946158#2 32946158#3 -25753445#5"/>
    </person>
    <person id="ped7" type="ped_pedestrian" depart="68.63">
        <walk edges="25752982#3 -476193324#4 -476193324#6 476193324#5 175576199 25772009 203503835#1"/>
    </person>
    <person id="ped8" type="ped_pedestrian" depart="78.43">
        <walk edges="-25767551#1 -25767551#0 292332293#2 291302741#0 291302741#1 291302741#2 291302741#3 211659540"/>
    </person>
    <person id="ped9" type="ped_pedestrian" depart="88.23">
        <walk edges="291302741#4 291302741#5 291302741#6 476193325#0 476193325#1 476193325#2 476193324#1 476193324#2 -24404765#3 742738762 25771867#1 25771867#0 -25753445#3 -109078457#1 -109078457#0"/>
    </person>
    <person id="ped10" type="ped_pedestrian" depart="98.04">
        <walk edges="291302741#3 291302741#4 291302741#5 291302741#6 476193325#0 476193325#1 476193325#2 476193324#1 476193324#2 -24404765#3 742738762 25771867#1 25771867#0 -25753479#0 25753479#1"/>
    </person>
    <person id="ped11" type="ped_pedestrian" depart="107.84">
        <walk edges="-476193325#1 -476193324#0 -476193324#1 -204720141#0 144832711#0 -25752988#0 -770894332 -25752969"/>
    </person>
    <person id="ped12" type="ped_pedestrian" depart="117.64">
        <walk edges="ENG_NORTH 25772009 58954430 -58953037 24404765#2 -24404765#3 476193324#2 476193324#1 476193325#2 476193325#1 476193325#0 291302741#6 -291302741#6 -476193325#0"/>
    </person>
    <person id="ped13" type="ped_pedestrian" depart="127.45">
        <walk edges="-211659539#0 -211659539#1"/>
    </person>
    <person id="ped14" type="ped_pedestrian" depart="137.25">
        <walk edges="43204200#0 58958760 -43204200#1 203503835#1 ENG_SOUTH -25753445#0 -25753445#1 -25753445#3 -25753445#4 -25753445#5 32946158#3 32946158#2 32946158#1 32946158#0 25753421#1 25753421#3 -25771747#2 -25771747#1 -25771747#0 -211659541#0 -211659541#1 -211659541#2 211659541#3"/>
    </person>
    <person id="ped15" type="ped_pedestrian" depart="147.05">
        <walk edges="291302741#3 291302741#2 291302741#1 291302741#0 292332293#2 -25767551#0 131269082 25767494#1"/>
    </person>
    <person id="ped16" type="ped_pedestrian" depart="156.86">
        <walk edges="178611985 25772009 58954430 -58953037 24404765#2 -24404765#3 476193324#2 476193324#1 476193325#2 476193325#1 476193325#0 291302741#6 291302741#5 291302741#4 291302741#3 291302741#2 131875033#0 331948875 131269083#1 133314768#0 -133314768#1 133314768#2 gneE0"/>
    </person>
    <person id="ped17" type="ped_pedestrian" depart="166.66">
        <walk edges="131269083#0 131875033#0 -291302741#2 25742967#2 204613518#1 204613518#0"/>
    </person>
    <person id="ped18" type="ped_pedestrian" depart="176.46">
        <walk edges="32946158#1 -32946158#2 -32946158#3 25753445#5 25753445#4 25753445#3 25771867#0 25771867#1 742738762 24404765#3"/>
    </person>
    <person id="ped19" type="ped_pedestrian" depart="186.27">
        <walk edges="43204224#1 43204224#2 476193324#5 476193324#4 476193324#3 24404765#3 742738762 25771867#1 25771867#0 25753445#3 25753445#4 25753445#5 -32946158#3 -32946158#2 32946158#1 32946158#0 25753421#1 25753421#3 25771747#2 138483453#3 138483453#2 205144880"/>
    </person>
    <person id="ped20" type="ped_pedestrian" depart="196.07">
        <walk edges="25753480 -25753479#1 -25753479#0 25753445#3 25753445#4 25753445#5 -32946158#3 -32946158#2 32946158#1 32946158#0 25753421#1 25753421#3 -25771747#2 -25771747#1 131875033#5 131875033#4 131875033#3 131875033#2 -131269083#0 -131269083#1 -131269083#2 PARK_N_RIDE_SOUTH 133314768#6 133314768#5 133314768#4 -133314768#3"/>
    </person>
    <person id="ped21" type="ped_pedestrian" depart="205.88">
        <walk edges="-25767551#3 25767551#1 -25767551#0 292332293#2 -292332293#2 -292332293#1"/>
    </person>
    <person id="ped22" type="ped_pedestrian" depart="215.68">
        <walk edges="-204720141#1 -204720141#0 -476193324#1 -476193324#0 -476193325#1 -476193325#0 -291302741#6 -291302741#5 291302741#4 291302741#3 291302741#2 -131875033#0 -131875033#2 -131875033#3 -131875033#4 -25771747#0 -25767857#0 -25767857#2"/>
    </person>
    <person id="ped23" type="ped_pedestrian" depart="225.48">
        <walk edges="-211659540 211659540 291302741#4 -291302741#4"/>
    </person>
    <person id="ped24" type="ped_pedestrian" depart="235.29">
        <walk edges="25743008 25742967#1 25742967#2 291302741#3 291302741#4 291302741#5 291302741#6 476193325#0 476193325#1 476193325#2 476193324#1 476193324#2 -24404765#3 742738762 25771867#1 25771867#0 -25753445#3 -109078457#1 109078457#0"/>
    </person>
    <person id="ped25" type="ped_pedestrian" depart="245.09">
        <walk edges="109078457#1 -25753445#3 -25753479#0 -25753479#1 25753479#3 -25753479#3"/>
    </person>
    <person id="ped26" type="ped_pedestrian" depart="254.89">
        <walk edges="-291302741#1 -291302741#2 291302741#3 291302741#4 291302741#5 291302741#6 476193325#0 476193325#1 476193325#2 476193324#1 476193324#2 -24404765#3 -24404765#2 681111876#0"/>
    </person>
    <person id="ped27" type="ped_pedestrian" depart="264.70">
        <walk edges="25752982#3 -25752988#0 144832711#0 -204720141#0 -476193324#1 -476193324#0 -476193325#1 -476193325#0 -291302741#6 211659898"/>
    </person>
    <person id="ped28" type="ped_pedestrian" depart="274.50">
        <walk edges="-25752988#1 -204759281#0 144832711#1 -204720141#0 -476193324#1 -476193324#0 -476193325#1 -476193325#0 -291302741#6 -291302741#5 -291302741#4 -291302741#3 -291302741#2 -291302741#1 291302741#0 292332293#2 -25767551#0 131269082 25767494#1"/>
    </person>
    <person id="ped29" type="ped_pedestrian" depart="284.30">
        <walk edges="-25752982#1 25752988#0 144832711#0 -204720141#0 -476193324#1 -476193324#0 -476193325#1 -476193325#0 -291302741#6 -291302741#5 -291302741#4 -291302741#3 -291302741#2 131875033#0 131269083#0"/>
    </person>
    <person id="ped30" type="ped_pedestrian" depart="294.11">
        <walk edges="gneE7 gneE8 133314777 133314768#0 131269083#1 331948875 131875033#0 -291302741#2 -25742967#2 25743230#1"/>
    </person>
    <person id="ped31" type="ped_pedestrian" depart="303.91">
        <walk edges="204613519 -25743230#0 25742967#2 291302741#3 291302741#4 291302741#5 291302741#6 476193325#0 476193325#1 476193325#2 476193324#1 476193324#2 -24404765#3 742738762 25771867#1 25771867#0 25753445#3 25753445#4"/>
    </person>
    <person id="ped32" type="ped_pedestrian" depart="313.71">
        <walk edges="331948874 131875033#3 131875033#4 131875033#5 -25771747#1 -25771747#2 25753421#3 25753421#1 32946158#0 32946158#1 -32946158#2 -32946158#3 25753445#5 25753445#4 25753445#3 25771867#0 25771867#1"/>
    </person>
    <person id="ped33" type="ped_pedestrian" depart="323.52">
        <walk edges="-25767551#3 25767551#1 -25767551#0 292332293#2 291302741#0 291302741#1 -131875033#0 -131875033#2"/>
    </person>
    <person id="ped34" type="ped_pedestrian" depart="333.32">
        <walk edges="-476193324#0 -476193325#1 -476193325#0 -291302741#6 -291302741#5 -291302741#4 -291302741#3 -291302741#2 -291302741#1"/>
    </person>
    <person id="ped35" type="ped_pedestrian" depart="343.13">
        <walk edges="-25753480 -25753479#1 -25753479#0 25771867#0 25771867#1 742738762"/>
    </person>
    <person id="ped36" type="ped_pedestrian" depart="352.93">
        <walk edges="476193324#3 476193324#4 476193324#5 -476193324#6 -476193324#4 -476193324#3 -476193324#2 -476193324#1 -476193324#0"/>
    </person>
    <person id="ped37" type="ped_pedestrian" depart="362.73">
        <walk edges="25752988#1 144832711#0 -204720141#0 -476193324#1 -476193324#0 -476193325#1 -476193325#0 -291302741#6 -291302741#5 291302741#4 291302741#3 291302741#2 -131875033#0 131875033#2"/>
    </person>
    <person id="ped38" type="ped_pedestrian" depart="372.54">
        <walk edges="58954430 -58953037 24404765#2 742738762 25771867#1 25771867#0 25753445#3 25753445#4 25753445#5 -32946158#3 -32946158#2 32946158#1 32946158#0 25753421#1 25753421#3 25771747#2 138483453#3 138483453#2 138483453#1"/>
    </person>
    <person id="ped39" type="ped_pedestrian" depart="382.34">
        <walk edges="-291302741#0 -291302741#1 -131875033#0 -131875033#2 -131875033#3 -131875033#4 -25771747#0 -25771747#1"/>
    </person>
    <person id="ped40" type="ped_pedestrian" depart="392.14">
        <walk edges="204613545 -291302741#0"/>
    </person>
    <person id="ped41" type="ped_pedestrian" depart="401.95">
        <walk edges="211659539#0 -211659541#0 -131875033#4 -131875033#3 -131875033#2 -131875033#0 291302741#2 291302741#3 291302741#4 291302741#5 291302741#6 476193325#0 476193325#1 476193325#2"/>
    </person>
    <person id="ped42" type="ped_pedestrian" depart="411.75">
        <walk edges="131875033#3 -131875033#2 -131875033#0 291302741#1 291302741#0 292332293#2 -25767551#0 -25767551#1"/>
    </person>
    <person id="ped43" type="ped_pedestrian" depart="421.55">
        <walk edges="gneE9 133314777 133314768#0 131269083#1 331948875 131875033#0 -291302741#2 -291302741#3 -291302741#4 -291302741#5 -291302741#6 -476193325#0 -476193325#1 -476193324#0 -476193324#1 -204720141#0 144832711#0"/>
    </person>
    <person id="ped44" type="ped_pedestrian" depart="431.36">
        <walk edges="-211659539#0 -211659541#0 131875033#4 131875033#3 131875033#2 -131269083#0 -131269083#1 -131269083#2 PARK_N_RIDE_SOUTH 133314768#6 133314768#5 133314768#4 -133314768#3"/>
    </person>
    <person id="ped45" type="ped_pedestrian" depart="441.16">
        <walk edges="-211659541#2 -211659541#1 -211659541#0 -131875033#4 -131875033#3 -131875033#2 -131875033#0 -291302741#2 25742967#2 25742967#1"/>
    </person>
    <person id="ped46" type="ped_pedestrian" depart="450.97">
        <walk edges="289264194#1 289264194#0 -476193324#0 -476193325#1 -476193325#0 -291302741#6 -291302741#5 291302741#4 291302741#3 291302741#2 -131875033#0 -131269083#0 -131269083#1 -131269083#2 PARK_N_RIDE_SOUTH 133314768#6 133314768#5 133314768#4 133314768#3"/>
    </person>
    <person id="ped47" type="ped_pedestrian" depart="460.77">
        <walk edges="-204613518#0 204613518#1 25742967#2 -291302741#2 131875033#0 131269083#0"/>
    </person>
    <person id="ped48" type="ped_pedestrian" depart="470.57">
        <walk edges="gneE8 133314777 133314768#0 131269083#1 331948875 131875033#0 291302741#2 291302741#3 291302741#4 291302741#5 291302741#6 476193325#0 476193325#1 476193325#2 476193324#1 476193324#2 -24404765#3 24404765#3 476193324#3 476193324#4 175576199"/>
    </person>
    <person id="ped49" type="ped_pedestrian" depart="480.38">
        <walk edges="gneE0 133314768#2 -133314768#1 133314768#0 131269083#1 331948875 131875033#0 -291302741#2 -291302741#3 -291302741#4 -291302741#5 -291302741#6 -476193325#0 -476193325#1 -476193324#0 -476193324#1 -476193324#2 -476193324#3 -476193324#4 -476193324#6 43204224#2 43204224#1"/>
    </person>
    <person id="ped50" type="ped_pedestrian" depart="490.18">
        <walk edges="-109078915 25753445#5 -32946158#3 150826232 150826242#1 25767463#9"/>
    </person>
    <person id="ped51" type="ped_pedestrian" depart="499.98">
        <walk edges="25753445#3 -25753445#1 -25753445#0 ENG_SOUTH 178611985"/>
    </person>
    <person id="ped52" type="ped_pedestrian" depart="509.79">
        <walk edges="-291302741#1 -291302741#2 -291302741#3 -291302741#4 -291302741#5 -291302741#6 -476193325#0 -476193325#1 -476193324#0 -476193324#1 -204720141#0 144832711#1 25753002#1 25753002#0 25752982#0"/>
    </person>
    <person id="ped53" type="ped_pedestrian" depart="519.59">
        <walk edges="-211659541#2 -211659541#1 -211659541#0 131875033#4 131875033#3 131875033#2 -131269083#0 -131269083#1 -131269083#2 PARK_N_RIDE_SOUTH 133314768#6"/>
    </person>
    <person id="ped54" type="ped_pedestrian" depart="529.39">
        <walk edges="133488380#1 -133314768#1 133314768#0 131269083#1 331948875 131875033#0 -291302741#2 -291302741#3 -291302741#4 -291302741#5 -291302741#6 -476193325#0 -476193325#1 -476193324#0 -476193324#1 -204720141#0 144832711#0 25752988#0 770894332"/>
    </person>
    <person id="ped55" type="ped_pedestrian" depart="539.20">
        <walk edges="476193324#2 476193324#1 476193325#2 476193325#1 476193325#0 291302741#6 291302741#5 291302741#4 291302741#3 -291302741#2 -291302741#1 -291302741#0"/>
    </person>
    <person id="ped56" type="ped_pedestrian" depart="549.00">
        <walk edges="138483528#0 25753421#1 32946158#0 32946158#1 -32946158#2 -32946158#3 25753445#5 25753445#4 25753445#3 25771867#0 25771867#1 742738762 24404765#3 476193324#3 476193324#4 476193324#5 -476193324#6 -476193324#4 -25752982#3 -770894332 -25753171"/>
    </person>
    <person id="ped57" type="ped_pedestrian" depart="558.80">
        <walk edges="58953037 -58953037 24404765#2 -24404765#3 476193324#2 476193324#1"/>
    </person>
    <person id="ped58" type="ped_pedestrian" depart="568.61">
        <walk edges="-32946158#2 -32946158#3 25753445#5 25753445#4 25753445#3 25771867#0 25771867#1 742738762 -24404765#3 476193324#2 476193324#1 476193325#2 476193325#1 476193325#0 291302741#6 291302741#5 -291302741#4 -291302741#3 -25742967#2 25743230#1"/>
    </person>
    <person id="ped59" type="ped_pedestrian" depart="578.41">
        <walk edges="211659898 -291302741#6 -476193325#0 -476193325#1 -476193324#0 -476193324#1 -204720141#0 144832711#0 -25752988#0 -770894332 -25752969"/>
    </person>
    <person id="ped60" type="ped_pedestrian" depart="588.22">
        <walk edges="25771747#1 25771747#2 25753421#3 25753421#1 32946158#0 32946158#1 32946158#2 32946158#3 -25753445#5 -25753445#4 -25753445#3 -25753445#1 -25753445#0 ENG_SOUTH -203503835#1 -203503835#0 203503835#0"/>
    </person>
    <person id="ped61" type="ped_pedestrian" depart="598.02">
        <walk edges="25772009 175576199"/>
    </person>
    <person id="ped62" type="ped_pedestrian" depart="607.82">
        <walk edges="-109078456 -109078457#1 -25753445#3 25771867#0 25771867#1 742738762 24404765#3 476193324#3 476193324#4 476193324#5 -476193324#6 -476193324#4 -476193324#3"/>
    </person>
    <person id="ped63" type="ped_pedestrian" depart="617.63">
        <walk edges="-131269083#1 -131269083#0 131875033#2 131875033#3 131875033#4 131875033#5 -25771747#1 -25771747#2 25753421#3 25753421#1 32946158#0 32946158#1 -32946158#2 -32946158#3 25753445#5 25753445#4 25753445#3 681111874#1"/>
    </person>
    <person id="ped64" type="ped_pedestrian" depart="627.43">
        <walk edges="476193324#3 24404765#3 742738762 25771867#1 25771867#0 25753445#3 25753445#4 25753445#5 -32946158#3 -32946158#2 32946158#1"/>
    </person>
    <person id="ped65" type="ped_pedestrian" depart="637.23">
        <walk edges="-43204200#0 -43204200#1 203503835#1 -203503835#1 -203503835#0"/>
    </person>
    <person id="ped66" type="ped_pedestrian" depart="647.04">
        <walk edges="476193324#3 476193324#4 175576199 25772009 178611985 753116588#1"/>
    </person>
    <person id="ped67" type="ped_pedestrian" depart="656.84">
        <walk edges="-204759281#1 144832711#1 -204720141#0 -476193324#1 -476193324#0 -476193325#1 -476193325#0 -291302741#6 -291302741#5 291302741#4 291302741#3 291302741#2 -131875033#0 -131875033#2 -131875033#3 -131875033#4 -25771747#0 -25767857#0 -25767857#2 138483469 138483489#1"/>
    </person>
    <person id="ped68" type="ped_pedestrian" depart="666.64">
        <walk edges="-204613545 204613545 -291302741#1 -131875033#0 -131875033#2 -131875033#3 -131875033#4 -25771747#0 25771747#1"/>
    </person>
    <person id="ped69" type="ped_pedestrian" depart="676.45">
        <walk edges="25771747#2 25753421#3 25753421#1 32946158#0 32946158#1 -32946158#2 -32946158#3 25753445#5 25753445#4 25753445#3 25771867#0 25771867#1 742738762 -24404765#3"/>
    </person>
    <person id="ped70" type="ped_pedestrian" depart="686.25">
        <walk edges="138483469 -25767857#2 -25767857#0 -25771747#0 -131875033#4 -131875033#3 -131875033#2 -131875033#0 -291302741#2 25742967#2 204613518#1 204613518#0"/>
    </person>
    <person id="ped71" type="ped_pedestrian" depart="696.05">
        <walk edges="-291302741#0 -291302741#1 -291302741#2 291302741#3 291302741#4 291302741#5 291302741#6 476193325#0 476193325#1 476193325#2 476193324#1"/>
    </person>
    <person id="ped72" type="ped_pedestrian" depart="705.86">
        <walk edges="133314768#3 133314768#4 133314768#5 133314768#6 PARK_N_RIDE_SOUTH -131269083#2 -131269083#1 -131269083#0 131875033#2 131875033#3 131875033#4 131875033#5 -25771747#1 -25771747#2 25753421#3 25753421#1 32946158#0 32946158#1 -32946158#2 -32946158#3 25753445#5 25753445#4 25753445#3 -25753479#0 -25753479#1 -25753480"/>
    </person>
    <person id="ped73" type="ped_pedestrian" depart="715.66">
        <walk edges="203503835#0 203503835#1 25772009 58954430 -58953037 24404765#2 -24404765#3 476193324#2 476193324#1 476193325#2 476193325#1 476193325#0 291302741#6 291302741#5 291302741#4 291302741#3 291302741#2 291302741#1 291302741#0 292332293#2 -25767551#0 131269082 25767494#1"/>
    </person>
    <person id="ped74" type="ped_pedestrian" depart="725.47">
        <walk edges="-25753479#0 -25753445#1 -25753445#0 ENG_SOUTH 203503835#1 -43204200#1"/>
    </person>
    <person id="ped75" type="ped_pedestrian" depart="735.27">
        <walk edges="gneE8 133314777 133314768#0 131269083#1 331948875 131875033#0 -291302741#2 -291302741#3 -291302741#4 -291302741#5 -291302741#6 -476193325#0 -476193325#1 -476193324#0 -476193324#1 -204720141#0 144832711#0 -25752988#0 25752982#3"/>
    </person>
    <person id="ped76" type="ped_pedestrian" depart="745.07">
        <walk edges="133314772 gneE8 133314777 133314768#0 131269083#1 331948875 131875033#0 -131875033#0 -131875033#2 -131875033#3 -131875033#4 -25771747#0 -25771747#1 -25771747#2 25753421#3 25753421#1 32946158#0 32946158#1 32946158#2 150826232"/>
    </person>
    <person id="ped77" type="ped_pedestrian" depart="754.88">
        <walk edges="-24404765#0 -24404765#2 -24404765#3 476193324#2 476193324#1 476193325#2 476193325#1 476193325#0 291302741#6 291302741#5 291302741#4 291302741#3 291302741#2 291302741#1 291302741#0 292332293#2 -25767551#0 25767551#1 -25767551#3 -25767551#2"/>
    </person>
    <person id="ped78" type="ped_pedestrian" depart="764.68">
        <walk edges="-476193325#0 -291302741#6 -291302741#5 291302741#4 291302741#3 291302741#2 -131875033#0 -131875033#2 -131875033#3 -131875033#4 -211659541#0 -211659541#1 211659539#1"/>
    </person>
    <person id="ped79" type="ped_pedestrian" depart="774.48">
        <walk edges="-25767857#0 -25771747#0 -131875033#4 -131875033#3 -131875033#2 -131875033#0 291302741#1 291302741#0 292332293#2 -25767551#0 -25767551#1"/>
    </person>
    <person id="ped80" type="ped_pedestrian" depart="784.29">
        <walk edges="-204613545 204613545 -291302741#1 -291302741#2 25742967#2"/>
    </person>
    <person id="ped81" type="ped_pedestrian" depart="794.09">
        <walk edges="-25767551#3 25767551#1 -25767551#0 292332293#2 291302741#0 -291302741#1 -291302741#2 -291302741#3 -291302741#4 -291302741#5 -291302741#6 -476193325#0 -476193325#1 -476193324#0 -476193324#1 -204720141#0 144832711#0 -25752988#0 -770894332 -25752969 476193326#2"/>
    </person>
    <person id="ped82" type="ped_pedestrian" depart="803.89">
        <walk edges="43204224#1 43204224#2 -476193324#6 -476193324#4 -476193324#3 -476193324#2 -476193324#1 -476193324#0 -476193325#1 -476193325#0 -291302741#6 -291302741#5 -291302741#4 -291302741#3 -291302741#2 -291302741#1 204613545 -204613545"/>
    </person>
    <person id="ped83" type="ped_pedestrian" depart="813.70">
        <walk edges="-25767857#3 -25767857#2 -25767857#0 -25771747#0 -131875033#4 -131875033#3 -131875033#2 -131875033#0 291302741#2 291302741#3 291302741#4 -291302741#5 -291302741#6 -476193325#0 -476193325#1 -476193324#0 -476193324#1 -204720141#0 144832711#0 -25752988#0 -770894332 25753171"/>
    </person>
    <person id="ped84" type="ped_pedestrian" depart="823.50">
        <walk edges="-25753480 -25753479#1 -25753479#0 25771867#0 25771867#1 742738762 -24404765#3 476193324#2 476193324#1 476193325#2 476193325#1 476193325#0 291302741#6 291302741#5 -291302741#4 -291302741#3 -25742967#2 -25742967#1 -25742967#0"/>
    </person>
    <person id="ped85" type="ped_pedestrian" depart="833.30">
        <walk edges="681111876#0 -24404765#2 24404765#3 476193324#3 476193324#4 476193324#5 -476193324#6 -476193324#4 -476193324#3 -476193324#2 -204720141#0 144832711#1 204759281#1"/>
    </person>
    <person id="ped86" type="ped_pedestrian" depart="843.11">
        <walk edges="138483453#4 -25771747#1 -25771747#0 -131875033#4 -131875033#3 -131875033#2 -131875033#0 291302741#2 291302741#3 291302741#4 -291302741#5 -291302741#6 -476193325#0 -476193325#1 -476193324#0 289264194#0 289264193"/>
    </person>
    <person id="ped87" type="ped_pedestrian" depart="852.91">
        <walk edges="291302741#4 291302741#5 291302741#6 476193325#0 476193325#1 476193325#2 476193324#1 476193324#2 -24404765#3 742738762 25771867#1 25771867#0 -25753445#3"/>
    </person>
    <person id="ped88" type="ped_pedestrian" depart="862.72">
        <walk edges="-211659539#1 -211659541#1 -211659541#0 131875033#4 131875033#3 131875033#2 -131269083#0 -131269083#1 -131269083#2 PARK_N_RIDE_SOUTH 133314768#6 133314768#5"/>
    </person>
    <person id="ped89" type="ped_pedestrian" depart="872.52">
        <walk edges="133314768#3 133314768#4 133314768#5 133314768#6 PARK_N_RIDE_SOUTH -131269083#2 -131269083#1 -131269083#0 131875033#2 131875033#3 131875033#4 131875033#5 25771747#1 138483453#3"/>
    </person>
    <person id="ped90" type="ped_pedestrian" depart="882.32">
        <walk edges="25767494#1 131269082 -25767551#0 292332293#2 291302741#0 291302741#1 -131875033#0 -131875033#2 -131875033#3 -131875033#4 -25771747#0 -25771747#1 -25771747#2 25753421#3"/>
    </person>
    <person id="ped91" type="ped_pedestrian" depart="892.13">
        <walk edges="gneE13 133314768#5 133314768#6 PARK_N_RIDE_SOUTH -131269083#2 -131269083#1 -131269083#0 -131875033#0 291302741#2 291302741#3 211659540 -211659540"/>
    </person>
    <person id="ped92" type="ped_pedestrian" depart="901.93">
        <walk edges="131875033#4 131875033#3 -131875033#2 -131875033#0 291302741#2 291302741#3 291302741#4 -291302741#5 -291302741#6 -476193325#0 -476193325#1"/>
    </person>
    <person id="ped93" type="ped_pedestrian" depart="911.73">
        <walk edges="43204224#1 43204224#2 476193324#5 476193324#4 476193324#3 24404765#3 742738762 25771867#1 25771867#0 25753445#3 25753445#4 25753445#5 -32946158#3 -32946158#2 32946158#1 32946158#0 25753421#1 25753421#3 -25771747#2"/>
    </person>
    <person id="ped94" type="ped_pedestrian" depart="921.54">
        <walk edges="-25753445#3 -25753445#4 -25753445#5 32946158#3 32946158#2 32946158#1 32946158#0 25753421#1 25753421#3 -25771747#2 -25771747#1 131875033#5 131875033#4 131875033#3 131875033#2 -131269083#0 -131269083#1 -131269083#2 PARK_N_RIDE_SOUTH 133314768#6 133314768#5 133314768#4 -133314768#3 133488380#0"/>
    </person>
    <person id="ped95" type="ped_pedestrian" depart="931.34">
        <walk edges="133314768#3 133314768#4 133314768#5 133314768#6 PARK_N_RIDE_SOUTH -131269083#2 -131269083#1 -131269083#0 -131875033#0 291302741#2 291302741#3 291302741#4 -291302741#4"/>
    </person>
    <person id="ped96" type="ped_pedestrian" depart="941.14">
        <walk edges="-25771747#2 25753421#3 25753421#1 32946158#0 32946158#1 32946158#2 32946158#3 -25753445#5 -25753445#4 -25753445#3 -25753445#1 -25753445#0 ENG_SOUTH ENG_NORTH 681111873"/>
    </person>
    <person id="ped97" type="ped_pedestrian" depart="950.95">
        <walk edges="133314775 133314768#5 133314768#6 PARK_N_RIDE_SOUTH -131269083#2 -131269083#1 -131269083#0 -131875033#0 291302741#2 291302741#3 291302741#4 -291302741#5 -291302741#6 -476193325#0 -476193325#1 -476193324#0 -476193324#1 -476193324#2 -476193324#3 -476193324#4 -476193324#6 43204224#2 43204224#1"/>
    </person>
    <person id="ped98" type="ped_pedestrian" depart="960.75">
        <walk edges="204613518#0 204613518#1 25742967#2 -291302741#2 -131875033#0 -131875033#2 131875033#3 131875033#4 131875033#5 25767857#0 138483487 -138483487"/>
    </person>
    <person id="ped99" type="ped_pedestrian" depart="970.56">
        <walk edges="gneE9 133314777 133314768#0 131269083#1 331948875 131875033#0 -131875033#0 -131875033#2 -131875033#3 -131875033#4 -25771747#0 -25771747#1 -25771747#2 25753421#3 25753421#1 32946158#0 32946158#1 32946158#2"/>
    </person>
    <person id="ped100" type="ped_pedestrian" depart="980.36">
        <walk edges="PARK_N_RIDE_SOUTH -131269083#2 -131269083#1 -131269083#0 131875033#2 131875033#3 131875033#4 131875033#5 -25771747#1 -25771747#2 25753421#3 25753421#1 32946158#0 32946158#1 -32946158#2 -32946158#3 25753445#5 25753445#4 25753445#3 -25753479#0 -25753479#1 681111874#0"/>
    </person>
    <person id="ped101" type="ped_pedestrian" depart="990.16">
        <walk edges="43204200#0 58958760 -43204200#1 203503835#1 25772009 175576199 476193324#5 -476193324#6 -476193324#4 -25752982#3"/>
    </person>
    <person id="ped102" type="ped_pedestrian" depart="999.97">
        <walk edges="138483489#1 138483489#0 138483453#1 138483453#2 138483453#3 25771747#2 25753421#3 25753421#1 32946158#0 32946158#1 -32946158#2 -32946158#3 25753445#5 25753445#4 25753445#3 -25753479#0 -25753479#1 -25753480"/>
    </person>
    <person id="ped103" type="ped_pedestrian" depart="1009.77">
        <walk edges="131875033#4 131875033#5 -25771747#1 -25771747#2 25753421#3 25753421#1 32946158#0 32946158#1 32946158#2 32946158#3 -25753445#5 -25753445#4 -25753445#3 -25753445#1 -25753445#0 ENG_SOUTH -203503835#1"/>
    </person>
    <person id="ped104" type="ped_pedestrian" depart="1019.57">
        <walk edges="131269083#0 131269083#1 133314768#0 133314777 gneE8 133314772 133314768#4 gneE13"/>
    </person>
    <person id="ped105" type="ped_pedestrian" depart="1029.38">
        <walk edges="-291302741#0 -291302741#1 -291302741#2 -291302741#3 -291302741#4 -291302741#5 -291302741#6 -476193325#0 -476193325#1 -476193324#0 289264194#0 289264193"/>
    </person>
    <person id="ped106" type="ped_pedestrian" depart="1039.18">
        <walk edges="138483453#0 -25767857#0 131875033#5 131875033#4 131875033#3 131875033#2 -131269083#0 -131269083#1 -131269083#2 PARK_N_RIDE_SOUTH 133314768#6 133314768#5 133314768#4 133314768#3"/>
    </person>
    <person id="ped107" type="ped_pedestrian" depart="1048.98">
        <walk edges="ENG_NORTH 25772009 58954430 -58953037 24404765#2 -24404765#3 476193324#2 476193324#1 476193325#2 476193325#1 476193325#0 291302741#6 291302741#5 291302741#4 291302741#3 291302741#2 131875033#0 331948875 131269083#1 133314768#0 133314777 gneE8"/>
    </person>
    <person id="ped108" type="ped_pedestrian" depart="1058.79">
        <walk edges="204613518#1 25742967#2 -291302741#2 -131875033#0 -131875033#2 -131875033#3 -131875033#4 -25771747#0 -25771747#1 -25771747#2 25753421#3 25753421#1 32946158#0 150826257 25767463#8"/>
    </person>
    <person id="ped109" type="ped_pedestrian" depart="1068.59">
        <walk edges="-25752969 -770894332 -25752982#3 -476193324#4 -476193324#6 476193324#5 476193324#4 476193324#3 24404765#3 742738762 25771867#1 25771867#0 25753445#3 25753445#4 25753445#5 -32946158#3 -32946158#2 -32946158#1"/>
    </person>
    <person id="ped110" type="ped_pedestrian" depart="1078.39">