<?xml version="1.0" encoding="UTF-8"?>

<!-- generated on Wed 29 Apr 2020 05:01:03 PM IST by Eclipse SUMO netedit Version v1_5_0+0995-d754181b35
<configuration xmlns:xsi="http://www.w3.org/2001/XMLSchema-instance" xsi:noNamespaceSchemaLocation="http://sumo.dlr.de/xsd/netconvertConfiguration.xsd">

    <input>
        <sumo-net-file value="/home/joseph/sumo/car_track/osm.net.xml"/>
    </input>

    <output>
        <output-file value="/home/joseph/sumo/car_track/osm.net.xml"/>
        <output.street-names value="true"/>
    </output>

    <processing>
        <geometry.min-radius.fix.railways value="false"/>
        <geometry.max-grade.fix value="false"/>
        <offset.disable-normalization value="true"/>
        <lefthand value="true"/>
    </processing>

    <junctions>
        <no-internal-links value="false"/>
        <no-turnarounds value="true"/>
        <junctions.corner-detail value="5"/>
        <junctions.limit-turn-speed value="5.5"/>
        <rectangular-lane-cut value="false"/>
    </junctions>

    <pedestrian>
        <walkingareas value="true"/>
    </pedestrian>

    <report>
        <aggregate-warnings value="5"/>
    </report>

</configuration>
-->

<net version="1.6" junctionCornerDetail="5" walkingareas="true" lefthand="true" limitTurnSpeed="5.50" xmlns:xsi="http://www.w3.org/2001/XMLSchema-instance" xsi:noNamespaceSchemaLocation="http://sumo.dlr.de/xsd/net_file.xsd">

    <location netOffset="-494830.63,-5903658.29" convBoundary="0.00,0.00,1061.79,1192.57" origBoundary="-9.077549,53.281562,-9.049155,53.294186" projParameter="+proj=utm +zone=29 +ellps=WGS84 +datum=WGS84 +units=m +no_defs"/>

    <type id="cycleway.lane" allow="bicycle" bikeLaneWidth="1.00"/>
    <type id="cycleway.opposite_lane" allow="bicycle" bikeLaneWidth="1.00"/>
    <type id="cycleway.opposite_track" allow="bicycle" bikeLaneWidth="1.50"/>
    <type id="cycleway.track" allow="bicycle" bikeLaneWidth="1.50"/>
    <type id="cycleway.track|highway.trunk" priority="13" numLanes="2" speed="13.89" disallow="pedestrian tram rail_urban rail rail_electric rail_fast ship" oneway="0" bikeLaneWidth="1.50"/>
    <type id="highway.bridleway" priority="1" numLanes="1" speed="2.78" allow="pedestrian" oneway="1" width="2.00"/>
    <type id="highway.bus_guideway" priority="1" numLanes="1" speed="13.89" allow="bus" oneway="1"/>
    <type id="highway.cycleway" priority="1" numLanes="1" speed="8.33" allow="bicycle" oneway="0" width="1.00"/>
    <type id="highway.footway" priority="1" numLanes="1" speed="2.78" allow="pedestrian" oneway="1" width="2.00"/>
    <type id="highway.ford" priority="1" numLanes="1" speed="2.78" allow="army" oneway="0"/>
    <type id="highway.living_street" priority="2" numLanes="1" speed="2.78" disallow="tram rail_urban rail rail_electric rail_fast ship" oneway="0"/>
    <type id="highway.motorway" priority="14" numLanes="2" speed="27.78" allow="private emergency authority army vip passenger hov taxi bus coach delivery truck trailer motorcycle evehicle custom1 custom2" oneway="1"/>
    <type id="highway.motorway_link" priority="9" numLanes="1" speed="16.67" allow="private emergency authority army vip passenger hov taxi bus coach delivery truck trailer motorcycle evehicle custom1 custom2" oneway="1"/>
    <type id="highway.path" priority="1" numLanes="1" speed="2.78" allow="pedestrian bicycle" oneway="1" width="2.00"/>
    <type id="highway.pedestrian" priority="1" numLanes="1" speed="2.78" allow="pedestrian" oneway="1" width="2.00"/>
    <type id="highway.primary" priority="12" numLanes="2" speed="13.89" disallow="pedestrian tram rail_urban rail rail_electric rail_fast ship" oneway="0" sidewalkWidth="3.00"/>
    <type id="highway.primary_link" priority="7" numLanes="1" speed="13.89" disallow="pedestrian tram rail_urban rail rail_electric rail_fast ship" oneway="0" sidewalkWidth="3.00"/>
    <type id="highway.raceway" priority="15" numLanes="2" speed="83.33" allow="vip" oneway="0"/>
    <type id="highway.residential" priority="3" numLanes="1" speed="13.89" disallow="pedestrian tram rail_urban rail rail_electric rail_fast ship" oneway="0" sidewalkWidth="2.00"/>
    <type id="highway.secondary" priority="11" numLanes="1" speed="13.89" disallow="pedestrian tram rail_urban rail rail_electric rail_fast ship" oneway="0" sidewalkWidth="3.00"/>
    <type id="highway.secondary_link" priority="6" numLanes="1" speed="13.89" disallow="pedestrian tram rail_urban rail rail_electric rail_fast ship" oneway="0" sidewalkWidth="3.00"/>
    <type id="highway.service" priority="1" numLanes="1" speed="5.56" allow="pedestrian delivery bicycle" oneway="0"/>
    <type id="highway.stairs" priority="1" numLanes="1" speed="1.39" allow="pedestrian" oneway="1" width="2.00"/>
    <type id="highway.step" priority="1" numLanes="1" speed="1.39" allow="pedestrian" oneway="1" width="2.00"/>
    <type id="highway.steps" priority="1" numLanes="1" speed="1.39" allow="pedestrian" oneway="1" width="2.00"/>
    <type id="highway.tertiary" priority="10" numLanes="1" speed="13.89" disallow="pedestrian tram rail_urban rail rail_electric rail_fast ship" oneway="0" sidewalkWidth="3.00"/>
    <type id="highway.tertiary_link" priority="5" numLanes="1" speed="13.89" disallow="pedestrian tram rail_urban rail rail_electric rail_fast ship" oneway="0" sidewalkWidth="2.00"/>
    <type id="highway.track" priority="1" numLanes="1" speed="5.56" disallow="tram rail_urban rail rail_electric rail_fast ship" oneway="0"/>
    <type id="highway.trunk" priority="13" numLanes="2" speed="13.89" disallow="pedestrian bicycle tram rail_urban rail rail_electric rail_fast ship" oneway="0"/>
    <type id="highway.trunk_link" priority="8" numLanes="1" speed="13.89" disallow="pedestrian bicycle tram rail_urban rail rail_electric rail_fast ship" oneway="0"/>
    <type id="highway.unclassified" priority="4" numLanes="1" speed="13.89" disallow="pedestrian tram rail_urban rail rail_electric rail_fast ship" oneway="0" sidewalkWidth="2.00"/>
    <type id="highway.unsurfaced" priority="1" numLanes="1" speed="8.33" disallow="tram rail_urban rail rail_electric rail_fast ship" oneway="0"/>
    <type id="railway.highspeed" priority="21" numLanes="1" speed="69.44" allow="rail_fast" oneway="1"/>
    <type id="railway.light_rail" priority="19" numLanes="1" speed="27.78" allow="rail_urban" oneway="1"/>
    <type id="railway.preserved" priority="16" numLanes="1" speed="27.78" allow="rail" oneway="1"/>
    <type id="railway.rail" priority="20" numLanes="1" speed="44.44" allow="rail" oneway="1"/>
    <type id="railway.subway" priority="18" numLanes="1" speed="27.78" allow="rail_urban" oneway="1"/>
    <type id="railway.tram" priority="17" numLanes="1" speed="13.89" allow="tram" oneway="1"/>

    <edge id=":1249813271_0" function="internal">
        <lane id=":1249813271_0_0" index="0" allow="private emergency authority pedestrian passenger taxi bus coach delivery truck trailer motorcycle moped bicycle" speed="5.56" length="8.51" shape="789.94,286.41 789.11,288.79 788.46,290.40 787.66,291.93 786.37,294.10"/>
    </edge>
    <edge id=":1249813271_1" function="internal">
        <lane id=":1249813271_1_0" index="0" allow="private emergency authority pedestrian passenger taxi bus coach delivery truck trailer motorcycle moped bicycle" speed="5.56" length="11.87" shape="789.94,286.41 789.54,289.15 790.34,291.56 792.34,293.65 795.55,295.41"/>
    </edge>
    <edge id=":1249813271_2" function="internal">
        <lane id=":1249813271_2_0" index="0" allow="private emergency authority passenger taxi bus coach delivery truck trailer motorcycle moped bicycle" speed="5.56" length="6.97" shape="796.79,292.46 794.73,291.39 793.41,290.19 792.82,288.89 792.97,287.46"/>
    </edge>
    <edge id=":1249813271_3" function="internal">
        <lane id=":1249813271_3_0" index="0" allow="private emergency authority pedestrian passenger taxi bus coach delivery truck trailer motorcycle moped bicycle" speed="5.56" length="11.59" shape="796.79,292.46 793.32,291.38 790.43,291.30 788.11,292.20 786.37,294.10"/>
    </edge>
    <edge id=":1249813271_4" function="internal">
        <lane id=":1249813271_4_0" index="0" allow="private emergency authority passenger taxi bus coach delivery truck trailer motorcycle moped bicycle" speed="5.56" length="7.00" shape="789.11,295.76 790.07,294.83 791.46,294.46 793.29,294.65 795.55,295.41"/>
    </edge>
    <edge id=":1249813271_5" function="internal">
        <lane id=":1249813271_5_0" index="0" allow="private emergency authority passenger taxi bus coach delivery truck trailer motorcycle moped bicycle" speed="5.56" length="9.18" shape="789.11,295.76 790.50,293.42 791.36,291.76 792.06,290.03 792.97,287.46"/>
    </edge>
    <edge id=":1249813271_6" function="internal">
        <lane id=":1249813271_6_0" index="0" allow="private emergency authority passenger taxi bus coach delivery truck trailer motorcycle moped bicycle" speed="3.65" length="4.67" shape="789.11,295.76 789.05,294.32 788.57,293.56 787.68,293.49 786.37,294.10"/>
    </edge>
    <edge id=":1249813271_w0" function="walkingarea">
        <lane id=":1249813271_w0_0" index="0" allow="pedestrian" speed="1.00" length="8.48" width="3.20" shape="787.74,294.93 785.01,293.27 788.43,285.89 791.46,286.94 790.84,288.71 790.36,290.02 789.91,291.08 789.40,292.11 788.71,293.32"/>
    </edge>
    <edge id=":1249813271_w1" function="walkingarea">
        <lane id=":1249813271_w1_0" index="0" allow="pedestrian" speed="1.00" length="6.01" width="3.20" shape="794.48,287.99 796.37,288.65 797.41,290.99 796.17,293.94 796.17,293.94 794.93,296.89 792.19,297.62 790.48,296.59 791.52,294.85 792.26,293.55 792.82,292.45 793.29,291.31 793.81,289.90"/>
    </edge>
    <edge id=":1249813295_0" function="internal">
        <lane id=":1249813295_0_0" index="0" allow="private emergency authority pedestrian passenger taxi bus coach delivery truck trailer motorcycle moped bicycle" speed="5.56" length="13.60" shape="829.15,304.88 825.73,304.00 822.61,303.04 819.53,301.95 816.25,300.63"/>
    </edge>
    <edge id=":1249813295_1" function="internal">
        <lane id=":1249813295_1_0" index="0" allow="private emergency authority pedestrian passenger taxi bus coach delivery truck trailer motorcycle moped bicycle" speed="5.56" length="13.97" shape="829.15,304.88 825.51,304.55 822.44,305.45 819.94,307.56 818.02,310.89"/>
    </edge>
    <edge id=":1249813295_2" function="internal">
        <lane id=":1249813295_2_0" index="0" allow="private emergency authority pedestrian passenger taxi bus coach delivery truck trailer motorcycle moped bicycle" speed="3.65" length="4.67" shape="829.15,304.88 827.80,305.38 827.22,306.07 827.43,306.94 828.41,307.99"/>
    </edge>
    <edge id=":1249813295_3" function="internal">
        <lane id=":1249813295_3_0" index="0" allow="private emergency authority pedestrian passenger taxi bus coach delivery truck trailer motorcycle moped bicycle" speed="5.56" length="9.39" shape="820.97,312.12 822.27,309.85 823.95,308.41 825.99,307.79 828.41,307.99"/>
    </edge>
    <edge id=":1249813295_4" function="internal">
        <lane id=":1249813295_4_0" index="0" allow="private emergency authority pedestrian passenger taxi bus coach delivery truck trailer motorcycle moped bicycle" speed="5.56" length="14.16" shape="820.97,312.12 821.94,308.37 821.48,305.20 819.58,302.62 816.25,300.63"/>
    </edge>
    <edge id=":1249813295_5" function="internal">
        <lane id=":1249813295_5_0" index="0" allow="private emergency authority pedestrian passenger taxi bus coach delivery truck trailer motorcycle moped bicycle" speed="3.65" length="4.67" shape="820.97,312.12 820.69,310.71 820.11,310.03 819.22,310.09 818.02,310.89"/>
    </edge>
    <edge id=":1249813295_6" function="internal">
        <lane id=":1249813295_6_0" index="0" allow="private emergency authority pedestrian passenger taxi bus coach delivery truck trailer motorcycle moped bicycle" speed="5.56" length="9.01" shape="815.01,303.58 817.13,304.85 818.34,306.49 818.63,308.50 818.02,310.89"/>
    </edge>
    <edge id=":1249813295_7" function="internal">
        <lane id=":1249813295_7_0" index="0" allow="private emergency authority pedestrian passenger taxi bus coach delivery truck trailer motorcycle moped bicycle" speed="5.56" length="14.12" shape="815.01,303.58 818.37,304.92 821.62,306.08 824.91,307.09 828.41,307.99"/>
    </edge>
    <edge id=":1249813295_8" function="internal">
        <lane id=":1249813295_8_0" index="0" allow="private emergency authority pedestrian passenger taxi bus coach delivery truck trailer motorcycle moped bicycle" speed="3.65" length="4.67" shape="815.01,303.58 816.43,303.31 817.11,302.72 817.05,301.83 816.25,300.63"/>
    </edge>
    <edge id=":1249813295_w0" function="walkingarea">
        <lane id=":1249813295_w0_0" index="0" allow="pedestrian" speed="1.00" length="9.98" width="3.20" shape="829.52,303.33 828.78,306.44 828.78,306.44 828.04,309.55 822.45,312.74 819.49,311.51 819.49,311.51 816.54,310.28 814.39,305.05 815.63,302.10 815.63,302.10 816.87,299.15 826.76,302.66 824.73,302.13 823.07,301.63 821.44,301.04 819.49,300.25"/>
    </edge>
    <edge id=":1249813304_0" function="internal">
        <lane id=":1249813304_0_0" index="0" allow="private emergency authority pedestrian passenger taxi bus coach delivery truck trailer motorcycle moped bicycle" speed="3.65" length="4.67" shape="808.23,334.42 808.51,335.83 809.10,336.51 809.99,336.45 811.19,335.64"/>
    </edge>
    <edge id=":1249813320_0" function="internal">
        <lane id=":1249813320_0_0" index="0" allow="private emergency authority pedestrian passenger taxi bus coach delivery truck trailer motorcycle moped bicycle" speed="3.65" length="4.67" shape="852.51,313.75 853.86,313.25 854.44,312.56 854.23,311.69 853.25,310.63"/>
    </edge>
    <edge id=":1445051358_w0" function="walkingarea">
        <lane id=":1445051358_w0_0" index="0" allow="pedestrian" speed="1.00" length="4.17" width="2.00" shape="379.32,882.81 377.46,883.54 374.87,882.33 374.69,880.33 375.69,878.79 377.58,878.13"/>
    </edge>
    <edge id=":1467562996_0" function="internal">
        <lane id=":1467562996_0_0" index="0" allow="private emergency authority pedestrian passenger taxi bus coach delivery truck trailer motorcycle moped bicycle" speed="5.56" length="15.36" shape="401.04,824.12 398.66,827.07 396.56,830.33 394.67,833.72 392.88,837.10"/>
    </edge>
    <edge id=":1467562996_1" function="internal">
        <lane id=":1467562996_1_0" index="0" allow="private emergency authority pedestrian passenger taxi bus coach delivery truck trailer motorcycle moped bicycle" speed="5.56" length="15.51" shape="401.04,824.12 399.81,826.42 399.56,829.67 400.26,833.86 401.93,838.99"/>
    </edge>
    <edge id=":1467562996_2" function="internal">
        <lane id=":1467562996_2_0" index="0" allow="private emergency authority pedestrian passenger taxi bus coach delivery truck trailer motorcycle moped bicycle" speed="5.51" length="9.55" shape="395.71,838.60 397.42,836.15 399.03,835.39 400.53,836.34 401.93,838.99"/>
    </edge>
    <edge id=":1467562996_3" function="internal">
        <lane id=":1467562996_3_0" index="0" allow="private emergency authority pedestrian passenger taxi bus coach delivery truck trailer motorcycle moped bicycle" speed="3.65" length="4.67" shape="395.71,838.60 395.57,837.17 395.05,836.44 394.15,836.41 392.88,837.10"/>
    </edge>
    <edge id=":1467562996_w0" function="walkingarea">
        <lane id=":1467562996_w0_0" index="0" allow="pedestrian" speed="1.00" length="10.72" width="3.20" shape="399.87,823.03 402.21,825.21 403.42,838.42 400.43,839.56 397.12,839.36 394.29,837.85 394.29,837.85 391.47,836.34 397.64,825.53 396.13,827.50 395.05,829.24 394.10,831.09 393.01,833.35"/>
    </edge>
    <edge id=":1467562997_0" function="internal">
        <lane id=":1467562997_0_0" index="0" allow="private emergency authority pedestrian passenger taxi bus coach delivery truck trailer motorcycle moped bicycle" speed="5.56" length="9.42" shape="452.43,839.84 450.92,842.06 449.40,843.17 447.52,843.95 444.96,845.12"/>
    </edge>
    <edge id=":1467562997_1" function="internal">
        <lane id=":1467562997_1_0" index="0" allow="private emergency authority pedestrian passenger taxi bus coach delivery truck trailer motorcycle moped bicycle" speed="5.56" length="9.41" shape="452.43,839.84 447.62,847.93"/>
    </edge>
    <edge id=":1467562997_2" function="internal">
        <lane id=":1467562997_2_0" index="0" allow="private emergency authority passenger taxi bus coach delivery truck trailer motorcycle moped bicycle" speed="5.56" length="9.60" shape="450.35,849.61 455.25,841.35"/>
    </edge>
    <edge id=":1467562997_3" function="internal">
        <lane id=":1467562997_3_0" index="0" allow="private emergency authority passenger taxi bus coach delivery truck trailer motorcycle moped bicycle" speed="5.56" length="15.13" shape="450.35,849.61 452.57,845.16 452.42,842.93 449.88,842.92 444.96,845.12"/>
    </edge>
    <edge id=":1467562997_4" function="internal">
        <lane id=":1467562997_4_0" index="0" allow="private emergency authority passenger taxi bus coach delivery truck trailer motorcycle moped bicycle" speed="3.65" length="4.67" shape="450.35,849.61 450.30,848.17 449.82,847.41 448.93,847.33 447.62,847.93"/>
    </edge>
    <edge id=":1467562997_w0" function="walkingarea">
        <lane id=":1467562997_w0_0" index="0" allow="pedestrian" speed="1.00" length="7.48" width="3.20" shape="448.99,848.77 446.26,847.09 445.73,846.53 444.20,843.72 451.02,839.08 453.84,840.60"/>
    </edge>
    <edge id=":1467562997_w1" function="walkingarea">
        <lane id=":1467562997_w1_0" index="0" allow="pedestrian" speed="1.00" length="9.75" width="2.00" shape="456.66,842.11 458.42,843.06 453.42,851.49 451.71,850.44"/>
    </edge>
    <edge id=":1467562998_0" function="internal">
        <lane id=":1467562998_0_0" index="0" allow="private emergency authority pedestrian passenger taxi bus coach delivery truck trailer motorcycle moped bicycle" speed="5.56" length="5.53" shape="388.33,845.63 387.54,847.07 387.02,848.07 386.60,849.12 386.14,850.69"/>
    </edge>
    <edge id=":1467562998_1" function="internal">
        <lane id=":1467562998_1_0" index="0" allow="private emergency authority pedestrian passenger taxi bus coach delivery truck trailer motorcycle moped bicycle" speed="3.65" length="4.67" shape="388.33,845.63 388.47,847.06 388.99,847.79 389.88,847.82 391.15,847.13"/>
    </edge>
    <edge id=":1467562998_2" function="internal">
        <lane id=":1467562998_2_0" index="0" allow="private emergency authority pedestrian passenger taxi bus coach delivery truck trailer motorcycle moped bicycle" speed="5.56" length="4.86" shape="390.88,851.83 390.54,850.63 390.47,849.45 390.68,848.29 391.15,847.13"/>
    </edge>
    <edge id=":1467562998_3" function="internal">
        <lane id=":1467562998_3_0" index="0" allow="private emergency authority pedestrian passenger taxi bus coach delivery truck trailer motorcycle moped bicycle" speed="5.09" length="8.74" shape="390.88,851.83 389.46,848.92 388.20,847.76 387.09,848.35 386.14,850.69"/>
    </edge>
    <edge id=":1467562998_w0" function="walkingarea">
        <lane id=":1467562998_w0_0" index="0" allow="pedestrian" speed="1.00" length="5.19" width="3.20" shape="386.92,844.87 389.74,846.38 389.74,846.38 392.56,847.89 392.37,851.24 389.39,852.42 387.69,851.11 384.60,850.27 386.32,845.98 385.87,846.79 385.53,847.48 385.23,848.19 384.94,849.06"/>
    </edge>
    <edge id=":1467563002_0" function="internal">
        <lane id=":1467563002_0_0" index="0" allow="private emergency authority pedestrian passenger taxi bus coach delivery truck trailer motorcycle moped bicycle" speed="5.56" length="2.44" shape="440.32,859.82 439.04,861.90"/>
    </edge>
    <edge id=":1467563002_1" function="internal">
        <lane id=":1467563002_1_0" index="0" allow="private emergency authority passenger taxi bus coach delivery truck trailer motorcycle moped bicycle" speed="3.65" length="4.67" shape="440.32,859.82 440.37,861.26 440.84,862.02 441.73,862.10 443.04,861.50"/>
    </edge>
    <edge id=":1467563002_2" function="internal">
        <lane id=":1467563002_2_0" index="0" allow="private emergency authority passenger taxi bus coach delivery truck trailer motorcycle moped bicycle" speed="4.41" length="1.65" shape="441.94,862.21 442.10,862.43 442.33,862.39 442.65,862.08 443.04,861.50"/>
    </edge>
    <edge id=":1467563002_w0" function="walkingarea">
        <lane id=":1467563002_w0_0" index="0" allow="pedestrian" speed="1.00" length="2.44" width="3.20" shape="440.42,862.71 437.66,861.09 438.95,858.99 441.68,860.66 441.38,861.04 441.05,861.36 440.74,861.65 440.49,861.95 440.37,862.29"/>
    </edge>
    <edge id=":1467563002_w1" function="walkingarea">
        <lane id=":1467563002_w1_0" index="0" allow="pedestrian" speed="1.00" length="1.68" width="2.00" shape="444.41,862.34 446.11,863.38 445.36,861.10 443.46,861.72 443.62,862.13 443.77,862.41 443.93,862.58 444.09,862.62 444.24,862.54"/>
    </edge>
    <edge id=":1467563003_0" function="internal">
        <lane id=":1467563003_0_0" index="0" allow="private emergency authority passenger taxi bus coach delivery truck trailer motorcycle moped bicycle" speed="5.56" length="6.54" shape="463.64,924.82 462.54,923.22 461.78,922.11 461.17,920.93 460.51,919.12"/>
    </edge>
    <edge id=":1467563003_1" function="internal">
        <lane id=":1467563003_1_0" index="0" allow="private emergency authority passenger taxi bus coach delivery truck trailer motorcycle moped bicycle" speed="5.34" length="5.53" shape="458.83,923.74 460.00,923.05 460.67,922.05 460.84,920.74 460.51,919.12"/>
    </edge>
    <edge id=":1467563003_w0" function="walkingarea">
        <lane id=":1467563003_w0_0" index="0" allow="pedestrian" speed="1.00" length="5.81" width="2.00" shape="462.03,918.62 463.93,918.00 466.64,922.83 464.97,923.94 464.24,922.86 463.68,922.07 463.23,921.41 462.84,920.72 462.46,919.84"/>
    </edge>
    <edge id=":1467563007_0" function="internal">
        <lane id=":1467563007_0_0" index="0" allow="private emergency authority passenger taxi bus coach delivery truck trailer motorcycle moped bicycle" speed="5.56" length="11.60" shape="472.99,942.46 471.94,939.18 471.16,936.94 470.13,934.82 468.32,931.91"/>
    </edge>
    <edge id=":1467563007_1" function="internal">
        <lane id=":1467563007_1_0" index="0" allow="private emergency authority passenger taxi bus coach delivery truck trailer motorcycle moped bicycle" speed="5.56" length="9.10" shape="465.76,938.73 468.16,937.69 469.39,936.21 469.44,934.28 468.32,931.91"/>
    </edge>
    <edge id=":1467563007_w0" function="walkingarea">
        <lane id=":1467563007_w0_0" index="0" allow="pedestrian" speed="1.00" length="12.21" width="2.00" shape="469.66,931.03 471.33,929.93 476.40,941.32 474.51,941.95 473.72,939.52 473.14,937.71 472.61,936.23 471.96,934.82 471.03,933.18"/>
    </edge>
    <edge id=":1467563008_0" function="internal">
        <lane id=":1467563008_0_0" index="0" allow="private emergency authority pedestrian passenger taxi bus coach delivery truck trailer motorcycle moped bicycle" speed="5.56" length="9.04" shape="459.64,946.33 459.15,943.88 459.59,941.91 460.96,940.42 463.25,939.42"/>
    </edge>
    <edge id=":1467563008_1" function="internal">
        <lane id=":1467563008_1_0" index="0" allow="private emergency authority pedestrian passenger taxi bus coach delivery truck trailer motorcycle moped bicycle" speed="5.56" length="11.97" shape="459.64,946.33 458.01,942.74 456.09,940.38 453.88,939.26 451.38,939.37"/>
    </edge>
    <edge id=":1467563008_w0" function="walkingarea">
        <lane id=":1467563008_w0_0" index="0" allow="pedestrian" speed="1.00" length="10.16" width="3.20" shape="462.83,937.88 463.68,940.96 461.15,945.80 458.13,946.86 451.80,940.91 450.95,937.83 460.36,938.31 458.48,938.21 456.89,937.85 455.30,937.49 453.42,937.39"/>
    </edge>
    <edge id=":1467563009_0" function="internal">
        <lane id=":1467563009_0_0" index="0" allow="private emergency authority pedestrian passenger taxi bus coach delivery truck trailer motorcycle moped bicycle" speed="6.72" length="9.34" shape="429.51,927.49 432.10,927.06 434.22,927.50 435.86,928.81 437.02,930.98"/>
    </edge>
    <edge id=":1467563009_1" function="internal">
        <lane id=":1467563009_1_0" index="0" allow="private emergency authority pedestrian passenger taxi bus coach delivery truck trailer motorcycle moped bicycle" speed="6.36" length="9.04" shape="432.01,917.43 432.57,919.87 432.18,921.85 430.85,923.36 428.58,924.42"/>
    </edge>
    <edge id=":1467563009_2" function="internal">
        <lane id=":1467563009_2_0" index="0" allow="private emergency authority pedestrian passenger taxi bus coach delivery truck trailer motorcycle moped bicycle" speed="5.56" length="14.45" shape="432.01,917.43 437.02,930.98"/>
    </edge>
    <edge id=":1467563009_w0" function="walkingarea">
        <lane id=":1467563009_w0_0" index="0" allow="pedestrian" speed="1.00" length="9.13" width="3.20" shape="438.52,930.45 435.51,931.52 429.98,929.02 429.05,925.95 429.05,925.95 428.12,922.89 430.52,918.00 433.51,916.85"/>
    </edge>
    <edge id=":1467563010_0" function="internal">
        <lane id=":1467563010_0_0" index="0" allow="private emergency authority pedestrian passenger taxi bus coach delivery truck trailer motorcycle moped bicycle" speed="5.56" length="9.04" shape="446.51,940.71 444.22,941.72 442.85,943.20 442.42,945.17 442.92,947.63"/>
    </edge>
    <edge id=":1467563010_1" function="internal">
        <lane id=":1467563010_1_0" index="0" allow="private emergency authority pedestrian passenger taxi bus coach delivery truck trailer motorcycle moped bicycle" speed="5.56" length="11.21" shape="439.17,937.06 442.92,947.63"/>
    </edge>
    <edge id=":1467563010_w0" function="walkingarea">
        <lane id=":1467563010_w0_0" index="0" allow="pedestrian" speed="1.00" length="9.07" width="3.20" shape="446.09,939.17 446.94,942.26 444.43,947.09 441.41,948.16 437.66,937.59 440.67,936.53 444.80,939.41 443.67,939.38 442.69,939.07 441.87,938.50 441.20,937.65"/>
    </edge>
    <edge id=":1467563013_0" function="internal">
        <lane id=":1467563013_0_0" index="0" allow="private emergency authority passenger taxi bus coach delivery truck trailer motorcycle moped bicycle" speed="5.56" length="14.29" shape="477.40,1022.91 491.07,1018.75"/>
    </edge>
    <edge id=":1467563013_1" function="internal">
        <lane id=":1467563013_1_0" index="0" allow="private emergency authority pedestrian passenger taxi bus coach delivery truck trailer motorcycle moped bicycle" speed="5.56" length="11.56" shape="477.40,1022.91 480.96,1021.53 483.23,1019.77 484.21,1017.64 483.91,1015.14"/>
    </edge>
    <edge id=":1467563013_w0" function="walkingarea">
        <lane id=":1467563013_w0_0" index="0" allow="pedestrian" speed="1.00" length="11.23" width="3.20" shape="491.57,1020.27 492.18,1022.18 486.62,1027.88 483.59,1028.92 477.84,1024.45 476.96,1021.37 482.40,1015.67 485.42,1014.60"/>
    </edge>
    <edge id=":1467563014_0" function="internal">
        <lane id=":1467563014_0_0" index="0" allow="private emergency authority pedestrian passenger taxi bus coach delivery truck trailer motorcycle moped bicycle" speed="5.56" length="10.83" shape="465.63,1026.98 468.51,1025.83 470.67,1025.00 472.86,1024.25 475.83,1023.36"/>
    </edge>
    <edge id=":1467563014_1" function="internal">
        <lane id=":1467563014_1_0" index="0" allow="private emergency authority pedestrian passenger taxi bus coach delivery truck trailer motorcycle moped bicycle" speed="3.65" length="4.67" shape="465.63,1026.98 466.46,1025.79 466.53,1024.90 465.87,1024.31 464.46,1024.00"/>
    </edge>
    <edge id=":1467563014_2" function="internal">
        <lane id=":1467563014_2_0" index="0" allow="private emergency authority pedestrian passenger taxi bus coach delivery truck trailer motorcycle moped bicycle" speed="5.56" length="8.81" shape="467.67,1016.91 468.15,1019.27 467.78,1021.23 466.55,1022.81 464.46,1024.00"/>
    </edge>
    <edge id=":1467563014_3" function="internal">
        <lane id=":1467563014_3_0" index="0" allow="private emergency authority pedestrian passenger taxi bus coach delivery truck trailer motorcycle moped bicycle" speed="5.56" length="11.57" shape="467.67,1016.91 469.25,1020.30 471.13,1022.51 473.33,1023.53 475.83,1023.36"/>
    </edge>
    <edge id=":1467563014_w0" function="walkingarea">
        <lane id=":1467563014_w0_0" index="0" allow="pedestrian" speed="1.00" length="8.98" width="3.20" shape="475.39,1021.82 476.27,1024.90 466.22,1028.47 465.05,1025.49 465.05,1025.49 463.87,1022.52 466.16,1017.45 469.18,1016.37 474.14,1021.98 472.98,1021.71 471.90,1021.01 470.91,1019.89 470.00,1018.35"/>
    </edge>
    <edge id=":1467563015_0" function="internal">
        <lane id=":1467563015_0_0" index="0" allow="private emergency authority pedestrian passenger taxi bus coach delivery truck trailer motorcycle moped bicycle" speed="5.56" length="9.04" shape="460.48,1025.58 458.05,1026.16 456.06,1025.80 454.49,1024.52 453.36,1022.30"/>
    </edge>
    <edge id=":1467563015_1" function="internal">
        <lane id=":1467563015_1_0" index="0" allow="private emergency authority pedestrian passenger taxi bus coach delivery truck trailer motorcycle moped bicycle" speed="3.65" length="4.67" shape="460.48,1025.58 459.66,1026.76 459.58,1027.65 460.24,1028.25 461.65,1028.55"/>
    </edge>
    <edge id=":1467563015_2" function="internal">
        <lane id=":1467563015_2_0" index="0" allow="private emergency authority pedestrian passenger taxi bus coach delivery truck trailer motorcycle moped bicycle" speed="5.56" length="11.57" shape="450.70,1032.24 453.81,1031.44 456.26,1030.66 458.67,1029.75 461.65,1028.55"/>
    </edge>
    <edge id=":1467563015_3" function="internal">