<?xml version="1.0" encoding="UTF-8"?>

<!-- generated on Mon Jul 13 17:46:45 2020 by Eclipse SUMO duarouter Version v1_5_0+0995-d754181b35
<configuration xmlns:xsi="http://www.w3.org/2001/XMLSchema-instance" xsi:noNamespaceSchemaLocation="http://sumo.dlr.de/xsd/duarouterConfiguration.xsd">

    <input>
        <net-file value="osm.net.xml"/>
        <route-files value="osm.bicycle.trips.xml"/>
    </input>

    <output>
        <output-file value="osm.bicycle.trips.xml.tmp"/>
        <write-trips value="true"/>
    </output>

    <time>
        <begin value="0"/>
        <end value="3600.0"/>
    </time>

    <report>
        <no-warnings value="true"/>
        <ignore-errors value="true"/>
        <no-step-log value="true"/>
    </report>

</configuration>
-->

<routes xmlns:xsi="http://www.w3.org/2001/XMLSchema-instance" xsi:noNamespaceSchemaLocation="http://sumo.dlr.de/xsd/routes_file.xsd">
    <vType id="bike_bicycle" vClass="bicycle"/>
    <trip id="bike0" type="bike_bicycle" depart="0.00" departLane="best" from="211659898" to="-131269083#1"/>
    <trip id="bike1" type="bike_bicycle" depart="16.07" departLane="best" from="-25767857#2" to="-25753445#0"/>
    <trip id="bike2" type="bike_bicycle" depart="32.14" departLane="best" from="25753445#3" to="25752982#0"/>
    <trip id="bike3" type="bike_bicycle" depart="48.21" departLane="best" from="43204200#1" to="-204613519"/>
    <trip id="bike4" type="bike_bicycle" depart="64.28" departLane="best" from="-58953037" to="-131269083#2"/>
    <trip id="bike5" type="bike_bicycle" depart="80.35" departLane="best" from="-25753445#1" to="133314768#2.95"/>
    <trip id="bike6" type="bike_bicycle" depart="96.42" departLane="best" from="-131269083#2" to="-25752982#1"/>
    <trip id="bike7" type="bike_bicycle" depart="112.49" departLane="best" from="24404765#2" to="133488380#1"/>
    <trip id="bike8" type="bike_bicycle" depart="128.56" departLane="best" from="-25753445#1" to="204720141#1"/>
    <trip id="bike9" type="bike_bicycle" depart="144.63" departLane="best" from="289264193" to="-109078457#0"/>
    <trip id="bike11" type="bike_bicycle" depart="176.77" departLane="best" from="-292332293#1" to="-24404765#2"/>
    <trip id="bike12" type="bike_bicycle" depart="192.84" departLane="best" from="ENG_SOUTH" to="-291302741#4"/>
    <trip id="bike13" type="bike_bicycle" depart="208.91" departLane="best" from="-204759281#0" to="-204720141#1"/>
    <trip id="bike14" type="bike_bicycle" depart="224.98" departLane="best" from="291302741#5" to="211659539#0"/>
    <trip id="bike16" type="bike_bicycle" depart="257.12" departLane="best" from="133314777" to="gneE0"/>
    <trip id="bike17" type="bike_bicycle" depart="273.19" departLane="best" from="-476193324#1" to="138483487"/>
    <trip id="bike18" type="bike_bicycle" depart="289.26" departLane="best" from="291302741#1" to="211659541#1"/>
    <trip id="bike19" type="bike_bicycle" depart="305.33" departLane="best" from="32946158#0" to="204613519"/>
    <trip id="bike20" type="bike_bicycle" depart="321.40" departLane="best" from="25753002#0" to="-131875033#4"/>
    <trip id="bike21" type="bike_bicycle" depart="337.47" departLane="best" from="-25753445#4" to="-25767857#3"/>
    <trip id="bike22" type="bike_bicycle" depart="353.54" departLane="best" from="-204613545" to="-25753445#3"/>
    <trip id="bike23" type="bike_bicycle" depart="369.61" departLane="best" from="-211659538" to="-25767551#3"/>
    <trip id="bike24" type="bike_bicycle" depart="385.67" departLane="best" from="211659541#3" to="-32946158#1"/>
    <trip id="bike25" type="bike_bicycle" depart="401.74" departLane="best" from="-43204200#1" to="-25752988#1"/>
    <trip id="bike26" type="bike_bicycle" depart="417.81" departLane="best" from="-25767551#3" to="476193326#2"/>
    <trip id="bike27" type="bike_bicycle" depart="433.88" departLane="best" from="24404765#2" to="211659540"/>
    <trip id="bike28" type="bike_bicycle" depart="449.95" departLane="best" from="-25743230#0" to="25753445#3"/>
    <trip id="bike29" type="bike_bicycle" depart="466.02" departLane="best" from="-25742967#2" to="-43204200#1"/>
    <trip id="bike30" type="bike_bicycle" depart="482.09" departLane="best" from="gneE7" to="24404765#2"/>
    <trip id="bike31" type="bike_bicycle" depart="498.16" departLane="best" departSpeed="max" from="203503835#0" to="25752982#3"/>
    <trip id="bike32" type="bike_bicycle" depart="514.23" departLane="best" from="291302741#4" to="25767857#0"/>
    <trip id="bike33" type="bike_bicycle" depart="530.30" departLane="best" from="-25753445#4" to="-131875033#0"/>
    <trip id="bike34" type="bike_bicycle" depart="546.37" departLane="best" from="-291302741#1" to="-25767551#1"/>
    <trip id="bike35" type="bike_bicycle" depart="562.44" departLane="best" from="-25753171" to="476193326#3"/>
    <trip id="bike36" type="bike_bicycle" depart="578.51" departLane="best" from="32946158#3" to="-289264194#1"/>
    <trip id="bike37" type="bike_bicycle" depart="594.58" departLane="best" from="24404765#3" to="-476193324#2"/>
    <trip id="bike38" type="bike_bicycle" depart="610.65" departLane="best" from="476193324#5" to="131269083#0"/>
    <trip id="bike39" type="bike_bicycle" depart="626.72" departLane="best" from="-25767551#2" to="-25753479#0"/>
    <trip id="bike40" type="bike_bicycle" depart="642.79" departLane="best" departSpeed="max" from="203503835#0" to="-25767551#0"/>
    <trip id="bike41" type="bike_bicycle" depart="658.86" departLane="best" from="204613519" to="476193324#1"/>
    <trip id="bike42" type="bike_bicycle" depart="674.93" departLane="best" from="-476193324#6" to="-25753171"/>
    <trip id="bike43" type="bike_bicycle" depart="691.00" departLane="best" from="gneE9" to="133314768#3"/>
    <trip id="bike44" type="bike_bicycle" depart="707.07" departLane="best" from="-204720141#1" to="-131875033#4"/>
    <trip id="bike45" type="bike_bicycle" depart="723.14" departLane="best" from="-211659539#1" to="211659541#3"/>
    <trip id="bike46" type="bike_bicycle" depart="739.21" departLane="best" from="25767857#3" to="-476193326#2"/>
    <trip id="bike47" type="bike_bicycle" depart="755.28" departLane="best" from="-138483509" to="-43204200#1"/>
    <trip id="bike48" type="bike_bicycle" depart="771.35" departLane="best" from="gneE9" to="133314772"/>
    <trip id="bike49" type="bike_bicycle" depart="787.42" departLane="best" from="gneE0" to="292332293#2"/>
    <trip id="bike50" type="bike_bicycle" depart="803.49" departLane="best" from="-109078457#1" to="25753421#3"/>
    <trip id="bike51" type="bike_bicycle" depart="819.56" departLane="best" from="25752969" to="133314777"/>
    <trip id="bike52" type="bike_bicycle" depart="835.63" departLane="best" from="-25767551#3" to="24404765#2"/>
    <trip id="bike53" type="bike_bicycle" depart="851.70" departLane="best" from="-211659539#1" to="-58953037"/>
    <trip id="bike54" type="bike_bicycle" depart="867.77" departLane="best" departSpeed="max" from="131269082" to="ENG_NORTH"/>
    <trip id="bike55" type="bike_bicycle" depart="883.84" departLane="best" from="32946158#3" to="-25767551#0"/>
    <trip id="bike56" type="bike_bicycle" depart="899.91" departLane="best" from="133314768#2" to="-25743230#0"/>
    <trip id="bike57" type="bike_bicycle" depart="915.98" departLane="best" from="476193324#4" to="32946158#2"/>
    <trip id="bike58" type="bike_bicycle" depart="932.05" departLane="best" from="-289264193" to="24404765#0"/>
    <trip id="bike59" type="bike_bicycle" depart="948.12" departLane="best" from="211659539#0" to="-24404765#2"/>
    <trip id="bike60" type="bike_bicycle" depart="964.19" departLane="best" from="25753480" to="133488380#0"/>
    <trip id="bike61" type="bike_bicycle" depart="980.26" departLane="best" from="25767551#3" to="133314772"/>
    <trip id="bike62" type="bike_bicycle" depart="996.33" departLane="best" from="-109078456" to="-291302741#1"/>
    <trip id="bike63" type="bike_bicycle" depart="1012.40" departLane="best" from="-131269083#0" to="476193325#2"/>
    <trip id="bike64" type="bike_bicycle" depart="1028.47" departLane="best" from="331948874" to="291302741#2"/>
    <trip id="bike65" type="bike_bicycle" depart="1044.54" departLane="best" from="-289264194#1" to="-138483487"/>
    <trip id="bike66" type="bike_bicycle" depart="1060.61" departLane="best" from="32946158#3" to="58953037"/>
    <trip id="bike67" type="bike_bicycle" depart="1076.68" departLane="best" from="-204720141#0" to="131875033#4"/>
    <trip id="bike68" type="bike_bicycle" depart="1092.75" departLane="best" from="-203503835#1" to="25767551#0"/>
    <trip id="bike69" type="bike_bicycle" depart="1108.82" departLane="best" from="25767551#0" to="-211659541#0"/>
    <trip id="bike70" type="bike_bicycle" depart="1124.89" departLane="best" from="131875033#2" to="138483487"/>
    <trip id="bike71" type="bike_bicycle" depart="1140.96" departLane="best" from="-25767551#2" to="32946158#2"/>
    <trip id="bike72" type="bike_bicycle" depart="1157.02" departLane="best" from="-58953037" to="-25752988#1"/>
    <trip id="bike73" type="bike_bicycle" depart="1173.09" departLane="best" from="133488380#0" to="25753445#3"/>
    <trip id="bike74" type="bike_bicycle" depart="1189.16" departLane="best" from="-25752988#1" to="-289264194#0"/>
    <trip id="bike75" type="bike_bicycle" depart="1205.23" departLane="best" from="gneE8" to="25742967#0"/>
    <trip id="bike76" type="bike_bicycle" depart="1221.30" departLane="best" from="109078457#0" to="133314768#5"/>
    <trip id="bike77" type="bike_bicycle" depart="1237.37" departLane="best" from="-211659541#0" to="-25753445#0"/>
    <trip id="bike78" type="bike_bicycle" depart="1253.44" departLane="best" from="-291302741#6" to="204720141#1"/>
    <trip id="bike79" type="bike_bicycle" depart="1269.51" departLane="best" from="-25753445#4" to="-25753171"/>
    <trip id="bike80" type="bike_bicycle" depart="1285.58" departLane="best" from="-204613518#0" to="211659898"/>
    <trip id="bike81" type="bike_bicycle" depart="1301.65" departLane="best" from="-25753445#4" to="476193324#3"/>
    <trip id="bike82" type="bike_bicycle" depart="1317.72" departLane="best" from="292332293#2" to="-203503835#0"/>
    <trip id="bike83" type="bike_bicycle" depart="1333.79" departLane="best" from="-25753479#0" to="25743230#1"/>
    <trip id="bike84" type="bike_bicycle" depart="1349.86" departLane="best" from="-25753445#0" to="-211659541#1"/>
    <trip id="bike85" type="bike_bicycle" depart="1365.93" departLane="best" from="476193326#2" to="204613518#1"/>
    <trip id="bike86" type="bike_bicycle" depart="1382.00" departLane="best" from="131875033#0" to="25767857#3"/>
    <trip id="bike88" type="bike_bicycle" depart="1414.14" departLane="best" from="-204759281#1" to="-58953037"/>
    <trip id="bike89" type="bike_bicycle" depart="1430.21" departLane="best" from="-58953037" to="131269083#2"/>
    <trip id="bike90" type="bike_bicycle" depart="1446.28" departLane="best" from="25753421#3" to="25752969"/>
    <trip id="bike91" type="bike_bicycle" depart="1462.35" departLane="best" from="gneE6" to="-204720141#1"/>
    <trip id="bike92" type="bike_bicycle" depart="1478.42" departLane="best" from="-476193325#0" to="-291302741#5"/>
    <trip id="bike93" type="bike_bicycle" depart="1494.49" departLane="best" from="32946158#0" to="-25753479#1"/>
    <trip id="bike94" type="bike_bicycle" depart="1510.56" departLane="best" from="-25752982#1" to="109078457#1"/>
    <trip id="bike95" type="bike_bicycle" depart="1526.63" departLane="best" from="-58953037" to="-25767857#0"/>
    <trip id="bike96" type="bike_bicycle" depart="1542.70" departLane="best" from="-25753480" to="476193325#1"/>
    <trip id="bike97" type="bike_bicycle" depart="1558.77" departLane="best" from="109078457#1" to="32946158#0"/>
    <trip id="bike98" type="bike_bicycle" depart="1574.84" departLane="best" from="138483487" to="-133314768#1"/>
    <trip id="bike99" type="bike_bicycle" depart="1590.91" departLane="best" from="gneE9" to="291302741#3"/>
    <trip id="bike100" type="bike_bicycle" depart="1606.98" departLane="best" from="PARK_N_RIDE_SOUTH" to="476193325#2"/>
    <trip id="bike101" type="bike_bicycle" depart="1623.05" departLane="best" from="291302741#6" to="-25742967#1"/>
    <trip id="bike102" type="bike_bicycle" depart="1639.12" departLane="best" from="131875033#4" to="-25753002#0"/>
    <trip id="bike103" type="bike_bicycle" depart="1655.19" departLane="best" from="-476193325#0" to="-138483487"/>
    <trip id="bike104" type="bike_bicycle" depart="1671.26" departLane="best" from="-476193324#1" to="gneE6"/>
    <trip id="bike105" type="bike_bicycle" depart="1687.33" departLane="best" from="-25767551#2" to="25767857#3"/>
    <trip id="bike106" type="bike_bicycle" depart="1703.40" departLane="best" departSpeed="max" from="131269082" to="-476193326#2"/>
    <trip id="bike107" type="bike_bicycle" depart="1719.47" departLane="best" from="ENG_SOUTH" to="gneE8"/>
    <trip id="bike108" type="bike_bicycle" depart="1735.54" departLane="best" from="138483509" to="25753421#3"/>
    <trip id="bike109" type="bike_bicycle" depart="1751.61" departLane="best" from="-25742967#0" to="-25771747#1"/>
    <trip id="bike110" type="bike_bicycle" depart="1767.68" departLane="best" from="PARK_N_RIDE_SOUTH" to="204613545"/>
    <trip id="bike111" type="bike_bicycle" depart="1783.75" departLane="best" from="133488380#0" to="25753479#3"/>
    <trip id="bike112" type="bike_bicycle" depart="1799.82" departLane="best" from="-138483487" to="204720141#0"/>
    <trip id="bike113" type="bike_bicycle" depart="1815.89" departLane="best" from="133314768#2" to="292332293#0"/>
    <trip id="bike114" type="bike_bicycle" depart="1831.96" departLane="best" from="-25742967#1" to="ENG_SOUTH"/>
    <trip id="bike115" type="bike_bicycle" depart="1848.03" departLane="best" from="-204613545" to="-25743230#1"/>
    <trip id="bike116" type="bike_bicycle" depart="1864.10" departLane="best" from="204720141#0" to="25752982#0"/>
    <trip id="bike117" type="bike_bicycle" depart="1880.17" departLane="best" from="-25753479#0" to="-211659539#1"/>
    <trip id="bike118" type="bike_bicycle" depart="1896.24" departLane="best" from="43204200#0" to="-25753479#0"/>
    <trip id="bike119" type="bike_bicycle" depart="1912.31" departLane="best" from="204720141#0" to="211659541#1"/>
    <trip id="bike120" type="bike_bicycle" depart="1928.37" departLane="best" from="-476193326#3" to="204720141#0"/>
    <trip id="bike121" type="bike_bicycle" depart="1944.44" departLane="best" from="133314768#6" to="476193326#0"/>
    <trip id="bike122" type="bike_bicycle" depart="1960.51" departLane="best" from="-25752988#1" to="25753421#2"/>
    <trip id="bike123" type="bike_bicycle" depart="1976.58" departLane="best" from="-25753479#0" to="-476193324#3"/>
    <trip id="bike124" type="bike_bicycle" depart="1992.65" departLane="best" from="25743008" to="-25771747#1"/>
    <trip id="bike125" type="bike_bicycle" depart="2008.72" departLane="best" from="-291302741#1" to="25753479#3"/>
    <trip id="bike126" type="bike_bicycle" depart="2024.79" departLane="best" from="-204613518#0" to="131269083#0"/>
    <trip id="bike127" type="bike_bicycle" depart="2040.86" departLane="best" from="gneE9" to="gneE9"/>
    <trip id="bike128" type="bike_bicycle" depart="2056.93" departLane="best" from="-204613518#0" to="-25753002#0"/>
    <trip id="bike129" type="bike_bicycle" depart="2073.00" departLane="best" from="-25767551#2" to="476193326#0"/>
    <trip id="bike130" type="bike_bicycle" depart="2089.07" departLane="best" from="331948874" to="331948874"/>
    <trip id="bike131" type="bike_bicycle" depart="2105.14" departLane="best" from="-43204200#0" to="-24404765#3"/>
    <trip id="bike132" type="bike_bicycle" depart="2121.21" departLane="best" from="291302741#2" to="25753002#1"/>
    <trip id="bike133" type="bike_bicycle" depart="2137.28" departLane="best" from="211659539#0" to="gneE7"/>
    <trip id="bike134" type="bike_bicycle" depart="2153.35" departLane="best" from="24404765#3" to="-109078457#0"/>
    <trip id="bike135" type="bike_bicycle" depart="2169.42" departLane="best" from="289264194#0" to="-25771747#1"/>
    <trip id="bike136" type="bike_bicycle" depart="2185.49" departLane="best" from="25742967#1" to="476193326#2"/>
    <trip id="bike137" type="bike_bicycle" depart="2201.56" departLane="best" from="-211659541#3" to="-211659539#0"/>
    <trip id="bike138" type="bike_bicycle" depart="2217.63" departLane="best" from="-211659539#0" to="138483509"/>
    <trip id="bike139" type="bike_bicycle" depart="2233.70" departLane="best" from="-25767857#0" to="211659539#1"/>
    <trip id="bike140" type="bike_bicycle" depart="2249.77" departLane="best" from="25753421#1" to="-25752982#3"/>
    <trip id="bike141" type="bike_bicycle" depart="2265.84" departLane="best" from="211659541#2" to="-25767551#0"/>
    <trip id="bike142" type="bike_bicycle" depart="2281.91" departLane="best" from="131875033#5" to="476193324#3"/>
    <trip id="bike143" type="bike_bicycle" depart="2297.98" departLane="best" from="291302741#5" to="-204720141#0"/>
    <trip id="bike144" type="bike_bicycle" depart="2314.05" departLane="best" from="-58953037" to="-25767551#3"/>
    <trip id="bike145" type="bike_bicycle" depart="2330.12" departLane="best" from="-109078456" to="25767551#3"/>
    <trip id="bike146" type="bike_bicycle" depart="2346.19" departLane="best" from="211659541#3" to="-25767551#0"/>
    <trip id="bike147" type="bike_bicycle" depart="2362.26" departLane="best" from="25753445#4" to="138483487"/>
    <trip id="bike148" type="bike_bicycle" depart="2378.33" departLane="best" from="-770894332" to="-109078457#1"/>
    <trip id="bike149" type="bike_bicycle" depart="2394.40" departLane="best" from="-204613519" to="331948875"/>
    <trip id="bike150" type="bike_bicycle" depart="2410.47" departLane="best" from="476193324#2" to="133488380#1"/>
    <trip id="bike151" type="bike_bicycle" depart="2426.54" departLane="best" from="291302741#2" to="204613545"/>
    <trip id="bike152" type="bike_bicycle" depart="2442.61" departLane="best" from="-24404765#3" to="-211659541#0"/>
    <trip id="bike153" type="bike_bicycle" depart="2458.68" departLane="best" from="-289264194#1" to="476193324#1"/>
    <trip id="bike154" type="bike_bicycle" depart="2474.75" departLane="best" from="25771747#1" to="292332293#2"/>
    <trip id="bike155" type="bike_bicycle" depart="2490.82" departLane="best" from="476193324#1" to="-25752988#1"/>
    <trip id="bike156" type="bike_bicycle" depart="2506.89" departLane="best" from="-25753480" to="-204759281#0"/>
    <trip id="bike157" type="bike_bicycle" depart="2522.96" departLane="best" from="25767551#3" to="331948875"/>
    <trip id="bike158" type="bike_bicycle" depart="2539.03" departLane="best" from="-476193325#1" to="211659541#1"/>
    <trip id="bike159" type="bike_bicycle" depart="2555.10" departLane="best" from="-25742967#0" to="476193325#2"/>
    <trip id="bike160" type="bike_bicycle" depart="2571.17" departLane="best" from="32946158#0" to="gneE1"/>
    <trip id="bike161" type="bike_bicycle" depart="2587.24" departLane="best" from="289264193" to="331948874"/>
    <trip id="bike162" type="bike_bicycle" depart="2603.31" departLane="best" from="-131269083#1" to="25753445#5"/>
    <trip id="bike163" type="bike_bicycle" depart="2619.38" departLane="best" from="-291302741#5" to="476193326#0"/>
    <trip id="bike164" type="bike_bicycle" depart="2635.45" departLane="best" from="25771747#2" to="32946158#0"/>
    <trip id="bike165" type="bike_bicycle" depart="2651.52" departLane="best" from="289264193" to="-25767551#1"/>
    <trip id="bike166" type="bike_bicycle" depart="2667.59" departLane="best" from="25767857#2" to="-204759281#1"/>
    <trip id="bike167" type="bike_bicycle" depart="2683.65" departLane="best" from="32946158#2" to="292332293#2"/>
    <trip id="bike168" type="bike_bicycle" depart="2699.72" departLane="best" from="-25753445#3" to="289264194#0"/>
    <trip id="bike169" type="bike_bicycle" depart="2715.79" departLane="best" from="131269083#0" to="-289264193"/>
    <trip id="bike170" type="bike_bicycle" depart="2731.86" departLane="best" from="25767857#3" to="-25753445#1"/>
    <trip id="bike171" type="bike_bicycle" depart="2747.93" departLane="best" from="-131269083#1" to="-25752982#0"/>
    <trip id="bike172" type="bike_bicycle" depart="2764.00" departLane="best" from="-291302741#4" to="32946158#0"/>
    <trip id="bike173" type="bike_bicycle" depart="2780.07" departLane="best" from="PARK_N_RIDE_SOUTH" to="-25767857#0"/>
    <trip id="bike174" type="bike_bicycle" depart="2796.14" departLane="best" from="211659898" to="-476193324#3"/>
    <trip id="bike175" type="bike_bicycle" depart="2812.21" departLane="best" from="gneE10" to="133314777"/>
    <trip id="bike176" type="bike_bicycle" depart="2828.28" departLane="best" from="476193326#3" to="-211659539#0"/>
    <trip id="bike177" type="bike_bicycle" depart="2844.35" departLane="best" from="gneE0" to="-25743230#0"/>
    <trip id="bike178" type="bike_bicycle" depart="2860.42" departLane="best" from="PARK_N_RIDE_NORTH" to="-25767551#1"/>
    <trip id="bike179" type="bike_bicycle" depart="2876.49" departLane="best" from="-211659539#0" to="-58953037"/>
    <trip id="bike180" type="bike_bicycle" depart="2892.56" departLane="best" from="25753421#3" to="-289264194#1"/>
    <trip id="bike181" type="bike_bicycle" depart="2908.63" departLane="best" from="211659538" to="133314768#3"/>
    <trip id="bike182" type="bike_bicycle" depart="2924.70" departLane="best" from="-476193324#2" to="204613519"/>
    <trip id="bike183" type="bike_bicycle" depart="2940.77" departLane="best" from="-25767551#0" to="25753421#1"/>
    <trip id="bike184" type="bike_bicycle" depart="2956.84" departLane="best" from="-109078456" to="476193325#1"/>
    <trip id="bike185" type="bike_bicycle" depart="2972.91" departLane="best" from="133314777" to="25753421#3"/>
    <trip id="bike186" type="bike_bicycle" depart="2988.98" departLane="best" from="25753445#4" to="25752969"/>
    <trip id="bike187" type="bike_bicycle" depart="3005.05" departLane="best" from="-32946158#3" to="-203503835#0"/>
    <trip id="bike188" type="bike_bicycle" depart="3021.12" departLane="best" from="25742967#1" to="-291302741#2"/>
    <trip id="bike189" type="bike_bicycle" depart="3037.19" departLane="best" from="-291302741#1" to="291302741#6"/>
    <trip id="bike190" type="bike_bicycle" depart="3053.26" departLane="best" from="25753421#1" to="-25771747#2"/>
    <trip id="bike191" type="bike_bicycle" depart="3069.33" departLane="best" from="-291302741#0" to="-476193324#6"/>
    <trip id="bike192" type="bike_bicycle" depart="3085.40" departLane="best" from="-476193325#0" to="-25771747#1"/>
    <trip id="bike193" type="bike_bicycle" depart="3101.47" departLane="best" from="-211659541#2" to="-476193326#1"/>
    <trip id="bike194" type="bike_bicycle" depart="3117.54" departLane="best" from="476193326#3" to="25752982#0"/>
    <trip id="bike195" type="bike_bicycle" depart="3133.61" departLane="best" from="476193324#2" to="211659541#0"/>
    <trip id="bike196" type="bike_bicycle" depart="3149.68" departLane="best" from="-289264194#0" to="138483487"/>
    <trip id="bike197" type="bike_bicycle" depart="3165.75" departLane="best" from="-109078456" to="-25767857#2"/>
    <trip id="bike198" type="bike_bicycle" depart="3181.82" departLane="best" from="-770894332" to="204613545"/>
    <trip id="bike199" type="bike_bicycle" depart="3197.89" departLane="best" from="24404765#3" to="131269083#1"/>
    <trip id="bike200" type="bike_bicycle" depart="3213.96" departLane="best" from="109078457#1" to="-25753002#0"/>
    <trip id="bike201" type="bike_bicycle" depart="3230.03" departLane="best" from="131875033#0" to="476193324#2"/>
    <trip id="bike202" type="bike_bicycle" depart="3246.10" departLane="best" from="25771747#1" to="-25742967#2"/>
    <trip id="bike203" type="bike_bicycle" depart="3262.17" departLane="best" from="-204720141#0" to="133314768#4"/>
    <trip id="bike204" type="bike_bicycle" depart="3278.24" departLane="best" from="211659541#2" to="-291302741#4"/>
    <trip id="bike205" type="bike_bicycle" depart="3294.31" departLane="best" from="289264194#1" to="25753479#3"/>
    <trip id="bike206" type="bike_bicycle" depart="3310.38" departLane="best" from="25743008" to="-25753445#0"/>
    <trip id="bike207" type="bike_bicycle" depart="3326.45" departLane="best" from="-25752988#0" to="-131269083#1"/>
    <trip id="bike208" type="bike_bicycle" depart="3342.52" departLane="best" from="-25753479#3" to="131875033#2"/>
    <trip id="bike209" type="bike_bicycle" depart="3358.59" departLane="best" from="291302741#6" to="-203503835#0"/>
    <trip id="bike210" type="bike_bicycle" depart="3374.66" departLane="best" from="-476193326#2" to="211659541#3"/>
    <trip id="bike211" type="bike_bicycle" depart="3390.73" departLane="best" from="-25752982#3" to="25753002#0"/>
    <trip id="bike212" type="bike_bicycle" depart="3406.80" departLane="best" from="133314768#0" to="-25753479#0"/>
    <trip id="bike213" type="bike_bicycle" depart="3422.87" departLane="best" from="24404765#3" to="-109078457#0"/>
    <trip id="bike214" type="bike_bicycle" depart="3438.94" departLane="best" from="25753479#0" to="25767551#3"/>
    <trip id="bike215" type="bike_bicycle" depart="3455.00" departLane="best" from="-211659539#0" to="-476193326#2"/>
    <trip id="bike216" type="bike_bicycle" depart="3471.07" departLane="best" from="-25743230#1" to="ENG_SOUTH"/>
    <trip id="bike217" type="bike_bicycle" depart="3487.14" departLane="best" from="133314768#5" to="-133314768#1"/>
    <trip id="bike218" type="bike_bicycle" depart="3503.21" departLane="best" from="-25753480" to="291302741#6"/>
    <trip id="bike219" type="bike_bicycle" depart="3519.28" departLane="best" departSpeed="max" from="131269082" to="25771867#1"/>
    <trip id="bike220" type="bike_bicycle" depart="3535.35" departLane="best" from="25742967#2" to="gneE7"/>
    <trip id="bike221" type="bike_bicycle" depart="3551.42" departLane="best" from="204720141#0" to="770894332"/>
    <trip id="bike222" type="bike_bicycle" depart="3567.49" departLane="best" from="43204200#1" to="211659540"/>
    <trip id="bike223" type="bike_bicycle" depart="3583.56" departLane="best" from="25753421#1" to="133314768#2.95"/>
    <trip id="bike224" type="bike_bicycle" depart="3599.63" departLane="best" from="291302741#2" to="138483487"/>
</routes>
