<?xml version="1.0" encoding="UTF-8"?>

<!-- generated on Mon Jul 13 17:46:46 2020 by Eclipse SUMO duarouter Version v1_5_0+0995-d754181b35
<configuration xmlns:xsi="http://www.w3.org/2001/XMLSchema-instance" xsi:noNamespaceSchemaLocation="http://sumo.dlr.de/xsd/duarouterConfiguration.xsd">

    <input>
        <net-file value="osm.net.xml"/>
        <route-files value="osm.passenger.trips.xml"/>
    </input>

    <output>
        <output-file value="routes.rou.xml"/>
        <alternatives-output value="routes.rou.alt.xml"/>
    </output>

    <time>
        <begin value="0"/>
        <end value="3600.0"/>
    </time>

    <report>
        <no-warnings value="true"/>
        <ignore-errors value="true"/>
        <no-step-log value="true"/>
    </report>

</configuration>
-->

<routes xmlns:xsi="http://www.w3.org/2001/XMLSchema-instance" xsi:noNamespaceSchemaLocation="http://sumo.dlr.de/xsd/routes_file.xsd">
    <vType id="veh_passenger" vClass="passenger"/>
    <vehicle id="veh0" type="veh_passenger" depart="0.00" departLane="best">
        <route edges="24404765#2 24404765#3 -476193324#2 -476193324#1 -476193324#0 -476193325#1 -476193325#0 -291302741#6 -291302741#5 -291302741#4 -291302741#3 -291302741#2 131875033#0 331948875 131269083#1 131269083#2 -131269083#2"/>
    </vehicle>
    <vehicle id="veh1" type="veh_passenger" depart="10.53" departLane="best">
        <route edges="-25767857#2 -25767857#0 -25771747#0 -131875033#4 -131875033#3 -131875033#2 -131875033#0 291302741#2 291302741#3 291302741#4 291302741#5 291302741#6 476193325#0 476193325#1 476193325#2 476193324#1 476193324#2 476193324#3 -25752982#3 25752988#0 -25752988#0"/>
    </vehicle>
    <vehicle id="veh2" type="veh_passenger" depart="21.07" departLane="best">
        <route edges="25753421#3 25753421#1 32946158#0 32946158#1 32946158#2 32946158#3 -25753445#5 -25753445#4 -25753445#3 -25753445#1 24404765#0 24404765#2 24404765#3 476193324#3 -25752982#3 -25752982#1 -25752982#0 25752982#0"/>
    </vehicle>
    <vehicle id="veh3" type="veh_passenger" depart="31.60" departLane="best">
        <route edges="476193324#1 476193324#2 -24404765#3 -24404765#2 -24404765#0 -25753445#0 ENG_SOUTH -203503835#1 -203503835#0"/>
    </vehicle>
    <vehicle id="veh4" type="veh_passenger" depart="42.14" departLane="best">
        <route edges="-476193325#1 -476193325#0 -291302741#6 -291302741#5 -291302741#4 -291302741#3 -291302741#2 131875033#0 -131875033#0"/>
    </vehicle>
    <vehicle id="veh5" type="veh_passenger" depart="52.67" departLane="best">
        <route edges="-25753171 25753171 770894332 25752982#3 -476193324#3 -476193324#2 -476193324#1 -476193324#0 -476193325#1 -476193325#0 -291302741#6 -291302741#5 -291302741#4 -291302741#3 -291302741#2 131875033#0 131875033#2 131875033#3 131875033#4"/>
    </vehicle>
    <vehicle id="veh6" type="veh_passenger" depart="63.21" departLane="best">
        <route edges="-131269083#2 -131269083#1 -131269083#0 -131875033#0 291302741#2 -25742967#2 25743230#1 -25743230#1"/>
    </vehicle>
    <vehicle id="veh7" type="veh_passenger" depart="73.74" departLane="best">
        <route edges="25742967#0 25742967#1 25742967#2 -291302741#2 131875033#0 331948875 131269083#1 133314768#0 133314777 gneE8 133314772 133314768#4 133314775"/>
    </vehicle>
    <vehicle id="veh8" type="veh_passenger" depart="84.27" departLane="best">
        <route edges="-25753171 25753171 770894332 25752982#3 -476193324#3 -476193324#2 -476193324#1 -476193324#0 -476193325#1 -476193325#0 -291302741#6 -291302741#5 -291302741#4 -291302741#3 -291302741#2 -291302741#1 204613545"/>
    </vehicle>
    <vehicle id="veh9" type="veh_passenger" depart="94.81" departLane="best">
        <route edges="291302741#0 291302741#1 131875033#0 131875033#2 131875033#3 131875033#4 131875033#5 25771747#1 25771747#2 25753421#3 25753421#1 32946158#0 32946158#1 32946158#2 32946158#3 -25753445#5 -25753445#4 -109078457#1"/>
    </vehicle>
    <vehicle id="veh10" type="veh_passenger" depart="105.34" departLane="best">
        <route edges="-291302741#5 291302741#5 291302741#6 476193325#0 476193325#1 476193325#2 476193324#1 476193324#2 -24404765#3 -24404765#2 -24404765#0"/>
    </vehicle>
    <vehicle id="veh11" type="veh_passenger" depart="115.88" departLane="best">
        <route edges="770894332 25752982#3 -476193324#3 -476193324#2 -476193324#1 -476193324#0 -476193325#1 -476193325#0 -291302741#6 -291302741#5 -291302741#4 -291302741#3 -291302741#2 -291302741#1"/>
    </vehicle>
    <vehicle id="veh12" type="veh_passenger" depart="126.41" departLane="best">
        <route edges="-204720141#1 -204720141#0 -476193324#1 -476193324#0 -476193325#1 -476193325#0 -291302741#6 -291302741#5 -291302741#4 -291302741#3 -25742967#2 -25743230#0 -204613518#0"/>
    </vehicle>
    <vehicle id="veh13" type="veh_passenger" depart="136.94" departLane="best">
        <route edges="292332293#0 292332293#2 291302741#0 291302741#1 291302741#2 291302741#3 291302741#4 291302741#5 291302741#6 476193325#0 476193325#1 476193325#2 476193324#1 476193324#2 476193324#3 -25752982#3 25752988#0 25752988#1 25753002#1 204759281#1"/>
    </vehicle>
    <vehicle id="veh14" type="veh_passenger" depart="147.48" departLane="best">
        <route edges="289264194#1 -289264194#1 -289264194#0 -476193324#0 -476193325#1 -476193325#0 -291302741#6 -291302741#5 -291302741#4 -291302741#3 -291302741#2 131875033#0 131875033#2 131875033#3 131875033#4 131875033#5 25771747#1 25771747#2 25753421#3"/>
    </vehicle>
    <vehicle id="veh15" type="veh_passenger" depart="158.01" departLane="best">
        <route edges="133314777 gneE8 133314772 133314768#4 133314775 gneE6 133314768#6 PARK_N_RIDE_SOUTH -131269083#2 -131269083#1 -131269083#0 -131875033#0 291302741#2 291302741#3 291302741#4 291302741#5 291302741#6 476193325#0 476193325#1 476193325#2 476193324#1 476193324#2 -24404765#3 -24404765#2 -24404765#0 -25753445#0 ENG_SOUTH"/>
    </vehicle>
    <vehicle id="veh16" type="veh_passenger" depart="168.55" departLane="best">
        <route edges="-43204200#0 43204200#0 43204200#1 203503835#1 ENG_NORTH 203503835#4 24404765#0 24404765#2 24404765#3 -476193324#2 -476193324#1 -476193324#0 -476193325#1 -476193325#0 -291302741#6 -291302741#5 -291302741#4 -291302741#3 -291302741#2 131875033#0 331948875 131269083#1 133314768#0 133314777 gneE9 133488380#1"/>
    </vehicle>
    <vehicle id="veh17" type="veh_passenger" depart="179.08" departLane="best">
        <route edges="25752988#1 -25752988#1 -25752988#0 25752982#3 -476193324#3 -476193324#2 -476193324#1 -476193324#0 -476193325#1 -476193325#0 -291302741#6 -291302741#5 -291302741#4 -291302741#3 -291302741#2 131875033#0 131875033#2 131875033#3 131875033#4 -131875033#4"/>
    </vehicle>
    <vehicle id="veh18" type="veh_passenger" depart="189.62" departLane="best">
        <route edges="-25753445#1 25753445#1 25753445#3 25753445#4 25753445#5 -32946158#3 -32946158#2 -32946158#1 -32946158#0 25753421#2 -25771747#2 -25771747#1 25767857#0 -25767857#0"/>
    </vehicle>
    <vehicle id="veh19" type="veh_passenger" depart="200.15" departLane="best">
        <route edges="-204613545 291302741#1 291302741#2 291302741#3 291302741#4 291302741#5 291302741#6 476193325#0 476193325#1 476193325#2 476193324#1 476193324#2 476193324#3 -25752982#3 25752988#0 25752988#1 -25753002#0"/>
    </vehicle>
    <vehicle id="veh20" type="veh_passenger" depart="210.68" departLane="best">
        <route edges="-204759281#0 -25753002#0 25752982#1 25752982#3 -476193324#3 -476193324#2 -476193324#1 -476193324#0 -476193325#1 -476193325#0 -291302741#6 -291302741#5 -291302741#4 -291302741#3 -291302741#2 -291302741#1 -291302741#0 -292332293#2 25767551#0 -25767551#0"/>
    </vehicle>
    <vehicle id="veh21" type="veh_passenger" depart="221.22" departLane="best">
        <route edges="24404765#0 24404765#2 24404765#3 -476193324#2 -476193324#1 -476193324#0 -476193325#1 -476193325#0 -291302741#6"/>
    </vehicle>
    <vehicle id="veh22" type="veh_passenger" depart="231.75" departLane="best">
        <route edges="-32946158#2 32946158#2 32946158#3 -25753445#5 -25753445#4 -25753445#3 -25753445#1 24404765#0 24404765#2 24404765#3 476193324#3 -25752982#3 -25752982#1 -25752982#0"/>
    </vehicle>
    <vehicle id="veh23" type="veh_passenger" depart="242.29" departLane="best">
        <route edges="-25767551#3 -25767551#2 -25767551#1 -25767551#0 292332293#2 291302741#0 291302741#1 291302741#2 291302741#3 291302741#4 291302741#5 291302741#6 476193325#0 476193325#1 476193325#2 476193324#1 476193324#2 476193324#3 -25752982#3 -770894332 -25752969 -476193326#2 -476193326#1 476193326#0"/>
    </vehicle>
    <vehicle id="veh24" type="veh_passenger" depart="252.82" departLane="best">
        <route edges="24404765#3 -476193324#2 -476193324#1 -476193324#0 -476193325#1 -476193325#0 -291302741#6 -291302741#5 -291302741#4 -291302741#3 -291302741#2 131875033#0 131875033#2 131875033#3 131875033#4 211659541#0 211659541#1 -211659539#1 211659538"/>
    </vehicle>
    <vehicle id="veh25" type="veh_passenger" depart="263.36" departLane="best">
        <route edges="-25743008 25743008 25742967#1 25742967#2 -291302741#2 131875033#0 131875033#2 131875033#3 131875033#4 131875033#5 25771747#1 25771747#2 25753421#3 25753421#1 32946158#0 32946158#1 -32946158#1"/>
    </vehicle>
    <vehicle id="veh26" type="veh_passenger" depart="273.89" departLane="best">
        <route edges="gneE6 133314768#6 PARK_N_RIDE_SOUTH -131269083#2 -131269083#1 -131269083#0 -131875033#0 291302741#2 291302741#3 291302741#4 291302741#5 291302741#6 476193325#0 476193325#1 476193325#2 476193324#1 476193324#2 -24404765#3 -24404765#2 24404765#2"/>
    </vehicle>
    <vehicle id="veh27" type="veh_passenger" depart="284.42" departLane="best" departSpeed="max">
        <route edges="203503835#0 203503835#1 ENG_NORTH 203503835#4 24404765#0 24404765#2 24404765#3 476193324#3 -25752982#3 -25752982#1 25752982#1"/>
    </vehicle>
    <vehicle id="veh28" type="veh_passenger" depart="294.96" departLane="best">
        <route edges="291302741#6 476193325#0 -476193325#0 -291302741#6 -291302741#5 -291302741#4 -291302741#3 -291302741#2 131875033#0 131875033#2 131875033#3 131875033#4 131875033#5 25767857#0 25767857#2 25767857#3"/>
    </vehicle>
    <vehicle id="veh29" type="veh_passenger" depart="305.49" departLane="best">
        <route edges="-25753445#1 24404765#0 24404765#2 24404765#3 -476193324#2 -476193324#1 -476193324#0 -476193325#1 -476193325#0 -291302741#6 -291302741#5 -291302741#4 -291302741#3 -291302741#2 131875033#0 131875033#2 -131875033#2"/>
    </vehicle>
    <vehicle id="veh30" type="veh_passenger" depart="316.03" departLane="best">
        <route edges="-291302741#1 291302741#1 131875033#0 131875033#2 131875033#3 131875033#4 131875033#5 25771747#1 25771747#2 25753421#3 25753421#1 32946158#0 32946158#1 32946158#2 32946158#3 -25753445#5"/>
    </vehicle>
    <vehicle id="veh31" type="veh_passenger" depart="326.56" departLane="best">
        <route edges="25742967#1 25742967#2 291302741#3 291302741#4 291302741#5 291302741#6 476193325#0 476193325#1 476193325#2 476193324#1 476193324#2 -24404765#3 -24404765#2 -24404765#0 -25753445#0 ENG_SOUTH -203503835#1 -43204200#1 -43204200#0"/>
    </vehicle>
    <vehicle id="veh32" type="veh_passenger" depart="337.09" departLane="best">
        <route edges="-25767551#2 -25767551#1 -25767551#0 292332293#2 291302741#0 291302741#1 291302741#2 291302741#3 291302741#4 291302741#5 291302741#6 476193325#0 476193325#1 476193325#2 476193324#1 476193324#2 -24404765#3 -24404765#2 -24404765#0 -25753445#0"/>
    </vehicle>
    <vehicle id="veh33" type="veh_passenger" depart="347.63" departLane="best">
        <route edges="204613519 -204613519 204613518#1 25742967#2 291302741#3 291302741#4 291302741#5 291302741#6 476193325#0 476193325#1 476193325#2 476193324#1"/>
    </vehicle>
    <vehicle id="veh34" type="veh_passenger" depart="358.16" departLane="best">
        <route edges="gneE9 gneE1 133314768#2.95 133314768#3 133314768#4 133314775 gneE6 133314768#6 PARK_N_RIDE_SOUTH -131269083#2 -131269083#1 -131269083#0 131875033#2 131875033#3 131875033#4 131875033#5"/>
    </vehicle>
    <vehicle id="veh35" type="veh_passenger" depart="368.70" departLane="best">
        <route edges="-204720141#1 -204720141#0 -476193324#1 -476193324#0 -476193325#1 -476193325#0 -291302741#6 -291302741#5 -291302741#4 -291302741#3 -291302741#2 131875033#0 131875033#2 131875033#3 131875033#4 -131875033#4"/>
    </vehicle>
    <vehicle id="veh36" type="veh_passenger" depart="379.23" departLane="best">
        <route edges="25771747#2 -25771747#2 -25771747#1 -25771747#0 -131875033#4 -131875033#3 -131875033#2 -131875033#0 291302741#2 291302741#3 291302741#4 291302741#5 291302741#6 476193325#0 476193325#1 476193325#2 476193324#1 476193324#2 476193324#3 476193324#4 -476193324#4"/>
    </vehicle>
    <vehicle id="veh37" type="veh_passenger" depart="389.77" departLane="best">
        <route edges="-203503835#1 -43204200#1 43204200#1 203503835#1 ENG_NORTH 203503835#4 25753445#1 25753445#3 25753445#4 25753445#5 -32946158#3 -32946158#2 -32946158#1"/>
    </vehicle>
    <vehicle id="veh38" type="veh_passenger" depart="400.30" departLane="best">
        <route edges="ENG_SOUTH -203503835#1 -43204200#1 43204200#1 203503835#1 ENG_NORTH 203503835#4 24404765#0 24404765#2 24404765#3 -476193324#2 -476193324#1 -476193324#0 -476193325#1 -476193325#0 -291302741#6 -291302741#5 -291302741#4 -291302741#3 -291302741#2 -291302741#1 -291302741#0 -292332293#2 292332293#2"/>
    </vehicle>
    <vehicle id="veh39" type="veh_passenger" depart="410.83" departLane="best">
        <route edges="-131269083#0 131875033#2 131875033#3 131875033#4 131875033#5 25771747#1 25771747#2 25753421#3 25753421#1"/>
    </vehicle>
    <vehicle id="veh40" type="veh_passenger" depart="421.37" departLane="best">
        <route edges="25752982#0 25752982#1 25752982#3 -476193324#3 -476193324#2 -476193324#1 -476193324#0 -476193325#1 -476193325#0 -291302741#6 -291302741#5 -291302741#4 -291302741#3 -291302741#2 131875033#0 331948875 131269083#1 133314768#0 133314777 gneE8 133314772 133314768#4 133314775 gneE6 133314768#6"/>
    </vehicle>
    <vehicle id="veh41" type="veh_passenger" depart="431.90" departLane="best">
        <route edges="-25767551#3 -25767551#2 -25767551#1 -25767551#0 292332293#2 291302741#0 291302741#1 291302741#2 291302741#3 291302741#4 291302741#5 291302741#6 476193325#0 476193325#1 476193325#2 476193324#1 476193324#2 -24404765#3 24404765#3"/>
    </vehicle>
    <vehicle id="veh42" type="veh_passenger" depart="442.44" departLane="best">
        <route edges="131875033#5 -25771747#0 -131875033#4 -131875033#3 -131875033#2 -131875033#0 291302741#2 -25742967#2 -25742967#1"/>
    </vehicle>
    <vehicle id="veh43" type="veh_passenger" depart="452.97" departLane="best">
        <route edges="476193324#5 -476193324#6 -476193324#4 -476193324#3 -24404765#3 -24404765#2 -24404765#0 25753445#1 25753445#3 25753445#4 25753445#5 -32946158#3 -32946158#2 -32946158#1 32946158#1"/>
    </vehicle>
    <vehicle id="veh44" type="veh_passenger" depart="463.50" departLane="best">
        <route edges="-25771747#2 -25771747#1 -25771747#0 -131875033#4 -131875033#3 -131875033#2 -131875033#0 291302741#2 291302741#3 291302741#4 291302741#5 291302741#6 476193325#0 476193325#1 476193325#2 476193324#1 476193324#2 -24404765#3 -24404765#2 24404765#2"/>
    </vehicle>
    <vehicle id="veh45" type="veh_passenger" depart="474.04" departLane="best">
        <route edges="25767857#2 25767857#3 -25767857#3 -25767857#2 -25767857#0 -25771747#0 -131875033#4 -131875033#3 -131875033#2 331948875 131269083#1 133314768#0 133314777 gneE8 133314772 133314768#4"/>
    </vehicle>
    <vehicle id="veh46" type="veh_passenger" depart="484.57" departLane="best">
        <route edges="-131269083#1 -131269083#0 -131875033#0 291302741#2 291302741#3 291302741#4 291302741#5 291302741#6 476193325#0 476193325#1"/>
    </vehicle>
    <vehicle id="veh47" type="veh_passenger" depart="495.11" departLane="best">
        <route edges="-289264194#1 -289264194#0 -476193324#0 -476193325#1 -476193325#0 -291302741#6 -291302741#5 -291302741#4 -291302741#3 -291302741#2 131875033#0 131875033#2 131875033#3 131875033#4 131875033#5 25767857#0 138483487 -138483487"/>
    </vehicle>
    <vehicle id="veh48" type="veh_passenger" depart="505.64" departLane="best">
        <route edges="32946158#3 -25753445#5 -25753445#4 -25753445#3 -25753445#1 24404765#0 24404765#2 24404765#3 476193324#3 -25752982#3 -770894332 -25752969 476193326#3"/>
    </vehicle>
    <vehicle id="veh49" type="veh_passenger" depart="516.18" departLane="best">
        <route edges="-204720141#0 -476193324#1 -476193324#0 -476193325#1 -476193325#0 -291302741#6 -291302741#5 -291302741#4 -291302741#3 -291302741#2 131875033#0 331948875 131269083#1 131269083#2"/>
    </vehicle>
    <vehicle id="veh50" type="veh_passenger" depart="526.71" departLane="best">
        <route edges="-204613518#0 204613518#0 204613518#1 25742967#2 -291302741#2 -291302741#1 -291302741#0 -292332293#2 25767551#0 25767551#1 25767551#2 25767551#3"/>
    </vehicle>
    <vehicle id="veh51" type="veh_passenger" depart="537.24" departLane="best">
        <route edges="25767551#2 25767551#3 -25767551#1 -25767551#0 292332293#2 291302741#0 291302741#1 291302741#2 291302741#3 291302741#4 291302741#5 291302741#6 476193325#0 476193325#1 476193325#2 476193324#1 476193324#2 476193324#3 -25752982#3 25752988#0 25752988#1 25753002#1 204759281#1 -204759281#1"/>
    </vehicle>
    <vehicle id="veh52" type="veh_passenger" depart="547.78" departLane="best">
        <route edges="-25767551#2 -25767551#1 -25767551#0 292332293#2 291302741#0 291302741#1 131875033#0 131875033#2 131875033#3 131875033#4 131875033#5 25771747#1 25771747#2 25753421#3 25753421#1 32946158#0 32946158#1 32946158#2"/>
    </vehicle>
    <vehicle id="veh53" type="veh_passenger" depart="558.31" departLane="best">
        <route edges="133488380#0 gneE10 gneE8 133314772 133314768#4 133314775 gneE6 133314768#6 PARK_N_RIDE_SOUTH -131269083#2 -131269083#1 -131269083#0 131875033#2 131875033#3 131875033#4 131875033#5 25771747#1 25771747#2 25753421#3"/>
    </vehicle>
    <vehicle id="veh54" type="veh_passenger" depart="568.85" departLane="best">
        <route edges="-25752988#0 25752982#3 -476193324#3 -476193324#2 -476193324#1 -476193324#0 -476193325#1 -476193325#0 -291302741#6 -291302741#5 -291302741#4 -291302741#3 -291302741#2 131875033#0 131875033#2 131875033#3 131875033#4 131875033#5 25771747#1 -25771747#1"/>
    </vehicle>
    <vehicle id="veh55" type="veh_passenger" depart="579.38" departLane="best">
        <route edges="gneE8 133314772 133314768#4 133314775 gneE6 133314768#6 PARK_N_RIDE_SOUTH -131269083#2 -131269083#1 -131269083#0 -131875033#0 291302741#2 -25742967#2 -25742967#1 -25742967#0 25742967#0"/>
    </vehicle>
    <vehicle id="veh56" type="veh_passenger" depart="589.92" departLane="best">
        <route edges="-476193326#2 476193326#2 25752969 770894332 25752982#3 -476193324#3 -476193324#2 -476193324#1 -476193324#0 -476193325#1 -476193325#0 -291302741#6 -291302741#5 -291302741#4 -291302741#3 -291302741#2 131875033#0 331948875 131269083#1 133314768#0 133314768#1"/>
    </vehicle>
    <vehicle id="veh57" type="veh_passenger" depart="600.45" departLane="best">
        <route edges="-211659541#1 -211659541#0 -131875033#4 -131875033#3 -131875033#2 -131875033#0 291302741#2 291302741#3 291302741#4 291302741#5 291302741#6 476193325#0 476193325#1 476193325#2 476193324#1 476193324#2 476193324#3 -25752982#3 25752988#0 -25752988#0"/>
    </vehicle>
    <vehicle id="veh58" type="veh_passenger" depart="610.98" departLane="best">
        <route edges="-291302741#5 -291302741#4 -291302741#3 -291302741#2 -291302741#1 204613545"/>
    </vehicle>
    <vehicle id="veh59" type="veh_passenger" depart="621.52" departLane="best">
        <route edges="-25753445#1 24404765#0 24404765#2 24404765#3 476193324#3 -25752982#3"/>
    </vehicle>
    <vehicle id="veh60" type="veh_passenger" depart="632.05" departLane="best">
        <route edges="-204613518#0 204613518#0 204613518#1 25742967#2 291302741#3 291302741#4 291302741#5 291302741#6 476193325#0 476193325#1 476193325#2 476193324#1 476193324#2 -24404765#3 -24404765#2 -24404765#0 -25753445#0 203503835#4 24404765#0"/>
    </vehicle>
    <vehicle id="veh61" type="veh_passenger" depart="642.59" departLane="best">
        <route edges="32946158#0 32946158#1 32946158#2 32946158#3 -25753445#5 -25753445#4 -25753445#3 -25753445#1 -25753445#0 ENG_SOUTH -203503835#1 -203503835#0"/>
    </vehicle>
    <vehicle id="veh62" type="veh_passenger" depart="653.12" departLane="best">
        <route edges="-25753445#3 -25753445#1 24404765#0 24404765#2 24404765#3 -476193324#2 -476193324#1 -476193324#0 -476193325#1 -476193325#0 -291302741#6 -291302741#5 -291302741#4 -291302741#3 -25742967#2 25743230#1"/>
    </vehicle>
    <vehicle id="veh63" type="veh_passenger" depart="663.65" departLane="best">
        <route edges="-25753002#0 25752982#1 25752982#3 -476193324#3 -476193324#2 -476193324#1 -476193324#0 -476193325#1 -476193325#0 -291302741#6 -291302741#5 -291302741#4 -291302741#3 -291302741#2 131875033#0 131875033#2 131875033#3 131875033#4 211659541#0 211659541#1 211659541#2 -211659538"/>
    </vehicle>
    <vehicle id="veh64" type="veh_passenger" depart="674.19" departLane="best">
        <route edges="476193326#0 476193326#2 25752969 770894332 25752982#3 -476193324#3 -476193324#2 -476193324#1 -476193324#0 -476193325#1 -476193325#0 -291302741#6 -291302741#5 -291302741#4 -291302741#3 -25742967#2 -25743230#0 -204613518#0 204613518#0"/>
    </vehicle>
    <vehicle id="veh65" type="veh_passenger" depart="684.72" departLane="best">
        <route edges="131269083#2 -131269083#2 -131269083#1 -131269083#0 131875033#2 131875033#3 131875033#4 131875033#5 25771747#1 25771747#2"/>
    </vehicle>
    <vehicle id="veh66" type="veh_passenger" depart="695.26" departLane="best">
        <route edges="289264194#1 -289264194#1 -289264194#0 -476193324#0 -476193325#1 -476193325#0 -291302741#6 -291302741#5 -291302741#4 -291302741#3 -25742967#2 -25743230#0"/>
    </vehicle>
    <vehicle id="veh67" type="veh_passenger" depart="705.79" departLane="best">
        <route edges="-476193325#1 476193325#1 476193325#2 476193324#1 476193324#2 476193324#3 -25752982#3 -770894332"/>
    </vehicle>
    <vehicle id="veh68" type="veh_passenger" depart="716.33" departLane="best">
        <route edges="25753421#2 -25771747#2 -25771747#1 -25771747#0 -131875033#4 -131875033#3 -131875033#2 -131875033#0 291302741#2 291302741#3 291302741#4 291302741#5 291302741#6 476193325#0 476193325#1 476193325#2 476193324#1 476193324#2 476193324#3 -25752982#3 -770894332 -25752969 25752969"/>
    </vehicle>
    <vehicle id="veh69" type="veh_passenger" depart="726.86" departLane="best">
        <route edges="-476193324#3 -476193324#2 -476193324#1 -476193324#0 -476193325#1 -476193325#0 -291302741#6 -291302741#5 -291302741#4 -291302741#3 -291302741#2"/>
    </vehicle>
    <vehicle id="veh70" type="veh_passenger" depart="737.39" departLane="best">
        <route edges="32946158#0 32946158#1 32946158#2 32946158#3 -25753445#5 -25753445#4 -25753445#3 -25753445#1"/>
    </vehicle>
    <vehicle id="veh71" type="veh_passenger" depart="747.93" departLane="best">
        <route edges="-476193325#0 -291302741#6 -291302741#5 -291302741#4 -291302741#3 -291302741#2 -291302741#1 -291302741#0 -292332293#2 25767551#0 -25767551#0"/>
    </vehicle>
    <vehicle id="veh72" type="veh_passenger" depart="758.46" departLane="best">
        <route edges="-476193326#3 25752969 770894332 25752982#3 -476193324#3 -24404765#3 -24404765#2 -24404765#0 25753445#1 25753445#3 25753445#4 25753445#5 -32946158#3 -32946158#2 -32946158#1 -32946158#0 32946158#0"/>
    </vehicle>
    <vehicle id="veh73" type="veh_passenger" depart="769.00" departLane="best">
        <route edges="138483509 -138483509 -476193325#1 -476193325#0 -291302741#6 -291302741#5 -291302741#4 -291302741#3 -291302741#2 131875033#0 331948875 131269083#1 133314768#0 133314768#1 -133314768#1"/>
    </vehicle>
    <vehicle id="veh74" type="veh_passenger" depart="779.53" departLane="best">
        <route edges="gneE9 gneE1 133314768#2.95 133314768#3 133314768#4 133314775 gneE6 133314768#6 PARK_N_RIDE_SOUTH -131269083#2 -131269083#1 -131269083#0 -131875033#0 291302741#2 291302741#3 291302741#4"/>
    </vehicle>
    <vehicle id="veh75" type="veh_passenger" depart="790.07" departLane="best">
        <route edges="292332293#0 292332293#2 291302741#0 291302741#1 291302741#2 291302741#3 291302741#4 291302741#5 291302741#6 476193325#0 476193325#1 476193325#2 476193324#1 476193324#2 -24404765#3"/>
    </vehicle>
    <vehicle id="veh76" type="veh_passenger" depart="800.60" departLane="best">
        <route edges="131875033#3 -131875033#3 -131875033#2 -131875033#0 291302741#2 291302741#3 291302741#4 291302741#5 291302741#6 476193325#0 476193325#1 476193325#2 476193324#1 476193324#2 476193324#3 -25752982#3 -25752982#1"/>
    </vehicle>
    <vehicle id="veh77" type="veh_passenger" depart="811.13" departLane="best">
        <route edges="-476193324#3 -476193324#2 -476193324#1 -476193324#0 -476193325#1 -476193325#0 -291302741#6 -291302741#5 -291302741#4 -291302741#3 -291302741#2 131875033#0 131875033#2 131875033#3 131875033#4 131875033#5 25767857#0 138483487 -138483487"/>
    </vehicle>
    <vehicle id="veh78" type="veh_passenger" depart="821.67" departLane="best">
        <route edges="-43204200#0 43204200#0 43204200#1 203503835#1 ENG_NORTH 203503835#4 24404765#0 24404765#2 24404765#3 -476193324#2 -476193324#1 -476193324#0 -476193325#1 -476193325#0 -291302741#6 -291302741#5 -291302741#4 -291302741#3 -291302741#2 131875033#0 331948875 131269083#1 133314768#0 133314777 gneE9 gneE1"/>
    </vehicle>
    <vehicle id="veh79" type="veh_passenger" depart="832.20" departLane="best">
        <route edges="-25767551#2 -25767551#1 -25767551#0 292332293#2 291302741#0 291302741#1 131875033#0 131875033#2 131875033#3 131875033#4 131875033#5 25771747#1 25771747#2"/>
    </vehicle>
    <vehicle id="veh80" type="veh_passenger" depart="842.74" departLane="best">
        <route edges="770894332 25752982#3 -476193324#3 -476193324#2 -476193324#1 -476193324#0 -476193325#1 -476193325#0 -291302741#6 -291302741#5 -291302741#4 -291302741#3 -291302741#2 131875033#0 331948875 131269083#1 133314768#0 133314777 gneE8"/>
    </vehicle>
    <vehicle id="veh81" type="veh_passenger" depart="853.27" departLane="best" departSpeed="max">
        <route edges="203503835#0 203503835#1 ENG_NORTH 203503835#4 25753445#1 25753445#3 25753445#4 25753445#5 -32946158#3 -32946158#2 -32946158#1 -32946158#0 25753421#2 25753421#3 25753421#1"/>
    </vehicle>
    <vehicle id="veh82" type="veh_passenger" depart="863.80" departLane="best">
        <route edges="ENG_SOUTH -203503835#1 -43204200#1 43204200#1 203503835#1 ENG_NORTH 203503835#4 24404765#0 24404765#2 24404765#3 -476193324#2 -476193324#1 -476193324#0 -476193325#1 -476193325#0 -291302741#6 -291302741#5 -291302741#4 -291302741#3 -25742967#2 -25743230#0 204613518#1"/>
    </vehicle>
    <vehicle id="veh84" type="veh_passenger" depart="884.87" departLane="best">
        <route edges="-25742967#2 25742967#2 291302741#3 291302741#4 291302741#5 291302741#6 476193325#0 476193325#1 476193325#2 476193324#1 476193324#2 476193324#3 -25752982#3 -770894332 770894332"/>
    </vehicle>
    <vehicle id="veh85" type="veh_passenger" depart="895.41" departLane="best">
        <route edges="-476193325#0 -291302741#6 -291302741#5 -291302741#4 -291302741#3 -25742967#2 -25743230#0 204613519"/>
    </vehicle>
    <vehicle id="veh86" type="veh_passenger" depart="905.94" departLane="best">
        <route edges="133314768#5 133314768#6 PARK_N_RIDE_SOUTH -131269083#2 -131269083#1 -131269083#0 -131875033#0 291302741#2 291302741#3 291302741#4 291302741#5 291302741#6 476193325#0 476193325#1 476193325#2"/>
    </vehicle>
    <vehicle id="veh88" type="veh_passenger" depart="927.01" departLane="best">
        <route edges="-204613518#0 204613518#0 204613518#1 25742967#2 291302741#3 291302741#4 291302741#5 291302741#6 476193325#0 476193325#1 476193325#2 476193324#1 476193324#2 476193324#3 -25752982#3 -770894332 -25752969 476193326#3 -476193326#3"/>
    </vehicle>
    <vehicle id="veh89" type="veh_passenger" depart="937.54" departLane="best">
        <route edges="-204613518#0 204613518#0 204613518#1 25742967#2 291302741#3 291302741#4 291302741#5 291302741#6 476193325#0 476193325#1 476193325#2 476193324#1 476193324#2 476193324#3 -25752982#3 -25752982#1"/>
    </vehicle>
    <vehicle id="veh90" type="veh_passenger" depart="948.08" departLane="best">
        <route edges="-25767551#2 -25767551#1 -25767551#0 292332293#2 291302741#0 291302741#1 291302741#2 291302741#3 291302741#4 291302741#5 291302741#6 476193325#0 476193325#1 476193325#2"/>
    </vehicle>
    <vehicle id="veh91" type="veh_passenger" depart="958.61" departLane="best">
        <route edges="331948874 131875033#4 131875033#5 25771747#1 25771747#2 25753421#3 25753421#1 32946158#0 32946158#1 32946158#2 32946158#3"/>
    </vehicle>
    <vehicle id="veh92" type="veh_passenger" depart="969.15" departLane="best">
        <route edges="291302741#4 291302741#5 291302741#6 476193325#0 476193325#1 476193325#2 476193324#1 476193324#2 476193324#3 -25752982#3 -25752982#1 25753002#0"/>
    </vehicle>
    <vehicle id="veh93" type="veh_passenger" depart="979.68" departLane="best">
        <route edges="211659538 -211659541#2 -211659541#1 -211659541#0 -131875033#4 -131875033#3 -131875033#2 331948875 131269083#1 133314768#0 133314768#1 133314768#2 gneE0 gneE10"/>
    </vehicle>
    <vehicle id="veh94" type="veh_passenger" depart="990.21" departLane="best">
        <route edges="25742967#0 25742967#1 25742967#2 291302741#3 291302741#4 291302741#5 291302741#6 476193325#0 476193325#1 476193325#2 476193324#1 476193324#2 -24404765#3 -24404765#2 -24404765#0 25753445#1 25753445#3 -109078457#1"/>