<?xml version="1.0" encoding="UTF-8"?>
<!-- generated on 2020-07-13 17:46:45.110301 by randomTrips.py v1_5_0+0995-d754181b35
  options: -n osm.net.xml <doubleminus>seed 42 <doubleminus>fringe-factor 1 -p 9.803588 -o osm.pedestrian.trips.xml -e 3600 -r osm.pedestrian.rou.xml <doubleminus>vehicle-class pedestrian <doubleminus>pedestrians <doubleminus>prefix ped <doubleminus>max-distance 2000
-->
<routes xmlns:xsi="http://www.w3.org/2001/XMLSchema-instance" xsi:noNamespaceSchemaLocation="http://sumo.dlr.de/xsd/routes_file.xsd">
    <vType id="ped_pedestrian" vClass="pedestrian"/>
    <person id="ped0" depart="0.00" type="ped_pedestrian">
        <walk from="25743230#1" to="-131269083#2"/>
    </person>
    <person id="ped1" depart="9.80" type="ped_pedestrian">
        <walk from="-291302741#3" to="-25767551#2"/>
    </person>
    <person id="ped2" depart="19.61" type="ped_pedestrian">
        <walk from="25767551#0" to="25753445#1"/>
    </person>
    <person id="ped3" depart="29.41" type="ped_pedestrian">
        <walk from="476193325#1" to="-204759281#1"/>
    </person>
    <person id="ped4" depart="39.21" type="ped_pedestrian">
        <walk from="133314768#3" to="-131875033#2"/>
    </person>
    <person id="ped5" depart="49.02" type="ped_pedestrian">
        <walk from="-25767551#1" to="138483528#1"/>
    </person>
    <person id="ped6" depart="58.82" type="ped_pedestrian">
        <walk from="-131875033#0" to="-25753445#5"/>
    </person>
    <person id="ped7" depart="68.63" type="ped_pedestrian">
        <walk from="25752982#3" to="203503835#1"/>
    </person>
    <person id="ped8" depart="78.43" type="ped_pedestrian">
        <walk from="-25767551#1" to="211659540"/>
    </person>
    <person id="ped9" depart="88.23" type="ped_pedestrian">
        <walk from="291302741#4" to="-109078457#0"/>
    </person>
    <person id="ped10" depart="98.04" type="ped_pedestrian">
        <walk from="291302741#3" to="25753479#1"/>
    </person>
    <person id="ped11" depart="107.84" type="ped_pedestrian">
        <walk from="-476193325#1" to="-25752969"/>
    </person>
    <person id="ped12" depart="117.64" type="ped_pedestrian">
        <walk from="ENG_NORTH" to="-476193325#0"/>
    </person>
    <person id="ped13" depart="127.45" type="ped_pedestrian">
        <walk from="-211659539#0" to="-211659539#1"/>
    </person>
    <person id="ped14" depart="137.25" type="ped_pedestrian">
        <walk from="43204200#0" to="211659541#3"/>
    </person>
    <person id="ped15" depart="147.05" type="ped_pedestrian">
        <walk from="291302741#3" to="25767494#1"/>
    </person>
    <person id="ped16" depart="156.86" type="ped_pedestrian">
        <walk from="178611985" to="gneE0"/>
    </person>
    <person id="ped17" depart="166.66" type="ped_pedestrian">
        <walk from="131269083#0" to="204613518#0"/>
    </person>
    <person id="ped18" depart="176.46" type="ped_pedestrian">
        <walk from="32946158#1" to="24404765#3"/>
    </person>
    <person id="ped19" depart="186.27" type="ped_pedestrian">
        <walk from="43204224#1" to="205144880"/>
    </person>
    <person id="ped20" depart="196.07" type="ped_pedestrian">
        <walk from="25753480" to="-133314768#3"/>
    </person>
    <person id="ped21" depart="205.88" type="ped_pedestrian">
        <walk from="-25767551#3" to="-292332293#1"/>
    </person>
    <person id="ped22" depart="215.68" type="ped_pedestrian">
        <walk from="-204720141#1" to="-25767857#2"/>
    </person>
    <person id="ped23" depart="225.48" type="ped_pedestrian">
        <walk from="-211659540" to="-291302741#4"/>
    </person>
    <person id="ped24" depart="235.29" type="ped_pedestrian">
        <walk from="25743008" to="109078457#0"/>
    </person>
    <person id="ped25" depart="245.09" type="ped_pedestrian">
        <walk from="109078457#1" to="-25753479#3"/>
    </person>
    <person id="ped26" depart="254.89" type="ped_pedestrian">
        <walk from="-291302741#1" to="681111876#0"/>
    </person>
    <person id="ped27" depart="264.70" type="ped_pedestrian">
        <walk from="25752982#3" to="211659898"/>
    </person>
    <person id="ped28" depart="274.50" type="ped_pedestrian">
        <walk from="-25752988#1" to="25767494#1"/>
    </person>
    <person id="ped29" depart="284.30" type="ped_pedestrian">
        <walk from="-25752982#1" to="131269083#0"/>
    </person>
    <person id="ped30" depart="294.11" type="ped_pedestrian">
        <walk from="gneE7" to="25743230#1"/>
    </person>
    <person id="ped31" depart="303.91" type="ped_pedestrian">
        <walk from="204613519" to="25753445#4"/>
    </person>
    <person id="ped32" depart="313.71" type="ped_pedestrian">
        <walk from="331948874" to="25771867#1"/>
    </person>
    <person id="ped33" depart="323.52" type="ped_pedestrian">
        <walk from="-25767551#3" to="-131875033#2"/>
    </person>
    <person id="ped34" depart="333.32" type="ped_pedestrian">
        <walk from="-476193324#0" to="-291302741#1"/>
    </person>
    <person id="ped35" depart="343.13" type="ped_pedestrian">
        <walk from="-25753480" to="742738762"/>
    </person>
    <person id="ped36" depart="352.93" type="ped_pedestrian">
        <walk from="476193324#3" to="-476193324#0"/>
    </person>
    <person id="ped37" depart="362.73" type="ped_pedestrian">
        <walk from="25752988#1" to="131875033#2"/>
    </person>
    <person id="ped38" depart="372.54" type="ped_pedestrian">
        <walk from="58954430" to="138483453#1"/>
    </person>
    <person id="ped39" depart="382.34" type="ped_pedestrian">
        <walk from="-291302741#0" to="-25771747#1"/>
    </person>
    <person id="ped40" depart="392.14" type="ped_pedestrian">
        <walk from="204613545" to="-291302741#0"/>
    </person>
    <person id="ped41" depart="401.95" type="ped_pedestrian">
        <walk from="211659539#0" to="476193325#2"/>
    </person>
    <person id="ped42" depart="411.75" type="ped_pedestrian">
        <walk from="131875033#3" to="-25767551#1"/>
    </person>
    <person id="ped43" depart="421.55" type="ped_pedestrian">
        <walk from="gneE9" to="144832711#0"/>
    </person>
    <person id="ped44" depart="431.36" type="ped_pedestrian">
        <walk from="-211659539#0" to="-133314768#3"/>
    </person>
    <person id="ped45" depart="441.16" type="ped_pedestrian">
        <walk from="-211659541#2" to="25742967#1"/>
    </person>
    <person id="ped46" depart="450.97" type="ped_pedestrian">
        <walk from="289264194#1" to="133314768#3"/>
    </person>
    <person id="ped47" depart="460.77" type="ped_pedestrian">
        <walk from="-204613518#0" to="131269083#0"/>
    </person>
    <person id="ped48" depart="470.57" type="ped_pedestrian">
        <walk from="gneE8" to="175576199"/>
    </person>
    <person id="ped49" depart="480.38" type="ped_pedestrian">
        <walk from="gneE0" to="43204224#1"/>
    </person>
    <person id="ped50" depart="490.18" type="ped_pedestrian">
        <walk from="-109078915" to="25767463#9"/>
    </person>
    <person id="ped51" depart="499.98" type="ped_pedestrian">
        <walk from="25753445#3" to="178611985"/>
    </person>
    <person id="ped52" depart="509.79" type="ped_pedestrian">
        <walk from="-291302741#1" to="25752982#0"/>
    </person>
    <person id="ped53" depart="519.59" type="ped_pedestrian">
        <walk from="-211659541#2" to="133314768#6"/>
    </person>
    <person id="ped54" depart="529.39" type="ped_pedestrian">
        <walk from="133488380#1" to="770894332"/>
    </person>
    <person id="ped55" depart="539.20" type="ped_pedestrian">
        <walk from="476193324#2" to="-291302741#0"/>
    </person>
    <person id="ped56" depart="549.00" type="ped_pedestrian">
        <walk from="138483528#0" to="-25753171"/>
    </person>
    <person id="ped57" depart="558.80" type="ped_pedestrian">
        <walk from="58953037" to="476193324#1"/>
    </person>
    <person id="ped58" depart="568.61" type="ped_pedestrian">
        <walk from="-32946158#2" to="25743230#1"/>
    </person>
    <person id="ped59" depart="578.41" type="ped_pedestrian">
        <walk from="211659898" to="-25752969"/>
    </person>
    <person id="ped60" depart="588.22" type="ped_pedestrian">
        <walk from="25771747#1" to="203503835#0"/>
    </person>
    <person id="ped61" depart="598.02" type="ped_pedestrian">
        <walk from="25772009" to="175576199"/>
    </person>
    <person id="ped62" depart="607.82" type="ped_pedestrian">
        <walk from="-109078456" to="-476193324#3"/>
    </person>
    <person id="ped63" depart="617.63" type="ped_pedestrian">
        <walk from="-131269083#1" to="681111874#1"/>
    </person>
    <person id="ped64" depart="627.43" type="ped_pedestrian">
        <walk from="476193324#3" to="32946158#1"/>
    </person>
    <person id="ped65" depart="637.23" type="ped_pedestrian">
        <walk from="-43204200#0" to="-203503835#0"/>
    </person>
    <person id="ped66" depart="647.04" type="ped_pedestrian">
        <walk from="476193324#3" to="753116588#1"/>
    </person>
    <person id="ped67" depart="656.84" type="ped_pedestrian">
        <walk from="-204759281#1" to="138483489#1"/>
    </person>
    <person id="ped68" depart="666.64" type="ped_pedestrian">
        <walk from="-204613545" to="25771747#1"/>
    </person>
    <person id="ped69" depart="676.45" type="ped_pedestrian">
        <walk from="25771747#2" to="-24404765#3"/>
    </person>
    <person id="ped70" depart="686.25" type="ped_pedestrian">
        <walk from="138483469" to="204613518#0"/>
    </person>
    <person id="ped71" depart="696.05" type="ped_pedestrian">
        <walk from="-291302741#0" to="476193324#1"/>
    </person>
    <person id="ped72" depart="705.86" type="ped_pedestrian">
        <walk from="133314768#3" to="-25753480"/>
    </person>
    <person id="ped73" depart="715.66" type="ped_pedestrian">
        <walk from="203503835#0" to="25767494#1"/>
    </person>
    <person id="ped74" depart="725.47" type="ped_pedestrian">
        <walk from="-25753479#0" to="-43204200#1"/>
    </person>
    <person id="ped75" depart="735.27" type="ped_pedestrian">
        <walk from="gneE8" to="25752982#3"/>
    </person>
    <person id="ped76" depart="745.07" type="ped_pedestrian">
        <walk from="133314772" to="150826232"/>
    </person>
    <person id="ped77" depart="754.88" type="ped_pedestrian">
        <walk from="-24404765#0" to="-25767551#2"/>
    </person>
    <person id="ped78" depart="764.68" type="ped_pedestrian">
        <walk from="-476193325#0" to="211659539#1"/>
    </person>
    <person id="ped79" depart="774.48" type="ped_pedestrian">
        <walk from="-25767857#0" to="-25767551#1"/>
    </person>
    <person id="ped80" depart="784.29" type="ped_pedestrian">
        <walk from="-204613545" to="25742967#2"/>
    </person>
    <person id="ped81" depart="794.09" type="ped_pedestrian">
        <walk from="-25767551#3" to="476193326#2"/>
    </person>
    <person id="ped82" depart="803.89" type="ped_pedestrian">
        <walk from="43204224#1" to="-204613545"/>
    </person>
    <person id="ped83" depart="813.70" type="ped_pedestrian">
        <walk from="-25767857#3" to="25753171"/>
    </person>
    <person id="ped84" depart="823.50" type="ped_pedestrian">
        <walk from="-25753480" to="-25742967#0"/>
    </person>
    <person id="ped85" depart="833.30" type="ped_pedestrian">
        <walk from="681111876#0" to="204759281#1"/>
    </person>
    <person id="ped86" depart="843.11" type="ped_pedestrian">
        <walk from="138483453#4" to="289264193"/>
    </person>
    <person id="ped87" depart="852.91" type="ped_pedestrian">
        <walk from="291302741#4" to="-25753445#3"/>
    </person>
    <person id="ped88" depart="862.72" type="ped_pedestrian">
        <walk from="-211659539#1" to="133314768#5"/>
    </person>
    <person id="ped89" depart="872.52" type="ped_pedestrian">
        <walk from="133314768#3" to="138483453#3"/>
    </person>
    <person id="ped90" depart="882.32" type="ped_pedestrian">
        <walk from="25767494#1" to="25753421#3"/>
    </person>
    <person id="ped91" depart="892.13" type="ped_pedestrian">
        <walk from="gneE13" to="-211659540"/>
    </person>
    <person id="ped92" depart="901.93" type="ped_pedestrian">
        <walk from="131875033#4" to="-476193325#1"/>
    </person>
    <person id="ped93" depart="911.73" type="ped_pedestrian">
        <walk from="43204224#1" to="-25771747#2"/>
    </person>
    <person id="ped94" depart="921.54" type="ped_pedestrian">
        <walk from="-25753445#3" to="133488380#0"/>
    </person>
    <person id="ped95" depart="931.34" type="ped_pedestrian">
        <walk from="133314768#3" to="-291302741#4"/>
    </person>
    <person id="ped96" depart="941.14" type="ped_pedestrian">
        <walk from="-25771747#2" to="681111873"/>
    </person>
    <person id="ped97" depart="950.95" type="ped_pedestrian">
        <walk from="133314775" to="43204224#1"/>
    </person>
    <person id="ped98" depart="960.75" type="ped_pedestrian">
        <walk from="204613518#0" to="-138483487"/>
    </person>
    <person id="ped99" depart="970.56" type="ped_pedestrian">
        <walk from="gneE9" to="32946158#2"/>
    </person>
    <person id="ped100" depart="980.36" type="ped_pedestrian">
        <walk from="PARK_N_RIDE_SOUTH" to="681111874#0"/>
    </person>
    <person id="ped101" depart="990.16" type="ped_pedestrian">
        <walk from="43204200#0" to="-25752982#3"/>
    </person>
    <person id="ped102" depart="999.97" type="ped_pedestrian">
        <walk from="138483489#1" to="-25753480"/>
    </person>
    <person id="ped103" depart="1009.77" type="ped_pedestrian">
        <walk from="131875033#4" to="-203503835#1"/>
    </person>
    <person id="ped104" depart="1019.57" type="ped_pedestrian">
        <walk from="131269083#0" to="gneE13"/>
    </person>
    <person id="ped105" depart="1029.38" type="ped_pedestrian">
        <walk from="-291302741#0" to="289264193"/>
    </person>
    <person id="ped106" depart="1039.18" type="ped_pedestrian">
        <walk from="138483453#0" to="133314768#3"/>
    </person>
    <person id="ped107" depart="1048.98" type="ped_pedestrian">
        <walk from="ENG_NORTH" to="gneE8"/>
    </person>
    <person id="ped108" depart="1058.79" type="ped_pedestrian">
        <walk from="204613518#1" to="25767463#8"/>
    </person>
    <person id="ped109" depart="1068.59" type="ped_pedestrian">
        <walk from="-25752969" to="-32946158#1"/>
    </person>
    <person id="ped110" depart="1078.39" type="ped_pedestrian">
        <walk from="PARK_N_RIDE_SOUTH" to="211659538"/>
    </person>
    <person id="ped111" depart="1088.20" type="ped_pedestrian">
        <walk from="203503835#1" to="25767551#3"/>
    </person>
    <person id="ped112" depart="1098.00" type="ped_pedestrian">
        <walk from="-203503835#0" to="211659539#0"/>
    </person>
    <person id="ped113" depart="1107.81" type="ped_pedestrian">
        <walk from="138483528#1" to="43204200#1"/>
    </person>
    <person id="ped114" depart="1117.61" type="ped_pedestrian">
        <walk from="-25752982#0" to="ENG_SOUTH"/>
    </person>
    <person id="ped115" depart="1127.41" type="ped_pedestrian">
        <walk from="-204759281#0" to="-25753445#1"/>
    </person>
    <person id="ped116" depart="1137.22" type="ped_pedestrian">
        <walk from="211659541#0" to="25753421#3"/>
    </person>
    <person id="ped117" depart="1147.02" type="ped_pedestrian">
        <walk from="-25767857#2" to="-211659898"/>
    </person>
    <person id="ped118" depart="1156.82" type="ped_pedestrian">
        <walk from="476193325#0" to="-25771747#1"/>
    </person>
    <person id="ped119" depart="1166.63" type="ped_pedestrian">
        <walk from="211659541#0" to="24404765#3"/>
    </person>
    <person id="ped120" depart="1176.43" type="ped_pedestrian">
        <walk from="133314768#2.95" to="211659539#0"/>
    </person>
    <person id="ped121" depart="1186.23" type="ped_pedestrian">
        <walk from="150826242#1" to="681111876#0"/>
    </person>
    <person id="ped122" depart="1196.04" type="ped_pedestrian">
        <walk from="-25753479#1" to="25767463#7"/>
    </person>
    <person id="ped123" depart="1205.84" type="ped_pedestrian">
        <walk from="-25767857#3" to="131875033#2"/>
    </person>
    <person id="ped124" depart="1215.64" type="ped_pedestrian">
        <walk from="25753421#1" to="-32946158#2"/>
    </person>
    <person id="ped125" depart="1225.45" type="ped_pedestrian">
        <walk from="-476193324#0" to="25767857#0"/>
    </person>
    <person id="ped126" depart="1235.25" type="ped_pedestrian">
        <walk from="-204613545" to="138483453#1"/>
    </person>
    <person id="ped127" depart="1245.06" type="ped_pedestrian">
        <walk from="gneE9" to="gneE8"/>
    </person>
    <person id="ped128" depart="1254.86" type="ped_pedestrian">
        <walk from="-204720141#0" to="-25753480"/>
    </person>
    <person id="ped129" depart="1264.66" type="ped_pedestrian">
        <walk from="-291302741#0" to="681111875"/>
    </person>
    <person id="ped130" depart="1274.47" type="ped_pedestrian">
        <walk from="476193324#4" to="476193324#3"/>
    </person>
    <person id="ped131" depart="1284.27" type="ped_pedestrian">
        <walk from="109078457#1" to="-25752982#0"/>
    </person>
    <person id="ped132" depart="1294.07" type="ped_pedestrian">
        <walk from="32946158#2" to="25753480"/>
    </person>
    <person id="ped133" depart="1303.88" type="ped_pedestrian">
        <walk from="24404765#0" to="gneE6"/>
    </person>
    <person id="ped134" depart="1313.68" type="ped_pedestrian">
        <walk from="25752988#0" to="-109078457#1"/>
    </person>
    <person id="ped135" depart="1323.48" type="ped_pedestrian">
        <walk from="291302741#6" to="-32946158#2"/>
    </person>
    <person id="ped136" depart="1333.29" type="ped_pedestrian">
        <walk from="25753002#1" to="681111876#1"/>
    </person>
    <person id="ped137" depart="1343.09" type="ped_pedestrian">
        <walk from="-25742967#0" to="-211659541#3"/>
    </person>
    <person id="ped138" depart="1352.90" type="ped_pedestrian">
        <walk from="-211659541#1" to="204613518#1"/>
    </person>
    <person id="ped139" depart="1362.70" type="ped_pedestrian">
        <walk from="-291302741#2" to="211659541#3"/>
    </person>
    <person id="ped140" depart="1372.50" type="ped_pedestrian">
        <walk from="25767463#8" to="-25753479#0"/>
    </person>
    <person id="ped141" depart="1382.31" type="ped_pedestrian">
        <walk from="25743008" to="-291302741#0"/>
    </person>
    <person id="ped142" depart="1392.11" type="ped_pedestrian">
        <walk from="138483489#2" to="476193326#2"/>
    </person>
    <person id="ped143" depart="1401.91" type="ped_pedestrian">
        <walk from="331948875" to="-211659539#0"/>
    </person>
    <person id="ped144" depart="1411.72" type="ped_pedestrian">
        <walk from="133314768#3" to="-291302741#4"/>
    </person>
    <person id="ped145" depart="1421.52" type="ped_pedestrian">
        <walk from="-109078456" to="25771867#0"/>
    </person>
    <person id="ped146" depart="1431.32" type="ped_pedestrian">
        <walk from="25743230#1" to="-291302741#0"/>
    </person>
    <person id="ped147" depart="1441.13" type="ped_pedestrian">
        <walk from="25767551#1" to="204613518#0"/>
    </person>
    <person id="ped148" depart="1450.93" type="ped_pedestrian">
        <walk from="133314768#4" to="-109078457#1"/>
    </person>
    <person id="ped149" depart="1460.73" type="ped_pedestrian">
        <walk from="-204720141#0" to="476193324#4"/>
    </person>
    <person id="ped150" depart="1470.54" type="ped_pedestrian">
        <walk from="476193326#2" to="203503835#4"/>
    </person>
    <person id="ped151" depart="1480.34" type="ped_pedestrian">
        <walk from="32946158#2" to="211659539#0"/>
    </person>
    <person id="ped152" depart="1490.15" type="ped_pedestrian">
        <walk from="-25743230#0" to="-24404765#3"/>
    </person>
    <person id="ped153" depart="1499.95" type="ped_pedestrian">
        <walk from="-43204200#0" to="476193326#0"/>
    </person>
    <person id="ped154" depart="1509.75" type="ped_pedestrian">
        <walk from="291302741#0" to="43204224#1"/>
    </person>
    <person id="ped155" depart="1519.56" type="ped_pedestrian">
        <walk from="476193326#0" to="-25753479#3"/>
    </person>
    <person id="ped156" depart="1529.36" type="ped_pedestrian">
        <walk from="-25771747#2" to="-211659541#0"/>
    </person>
    <person id="ped157" depart="1539.16" type="ped_pedestrian">
        <walk from="25772009" to="476193324#5"/>
    </person>
    <person id="ped158" depart="1548.97" type="ped_pedestrian">
        <walk from="131875033#5" to="24404765#3"/>
    </person>
    <person id="ped159" depart="1558.77" type="ped_pedestrian">
        <walk from="-25752969" to="681111874#1"/>
    </person>
    <person id="ped160" depart="1568.57" type="ped_pedestrian">
        <walk from="43204224#2" to="gneE1"/>
    </person>
    <person id="ped161" depart="1578.38" type="ped_pedestrian">
        <walk from="291302741#4" to="476193324#4"/>
    </person>
    <person id="ped162" depart="1588.18" type="ped_pedestrian">
        <walk from="-131269083#2" to="25767551#0"/>
    </person>
    <person id="ped163" depart="1597.98" type="ped_pedestrian">
        <walk from="-476193324#6" to="681111874#1"/>
    </person>
    <person id="ped164" depart="1607.79" type="ped_pedestrian">
        <walk from="291302741#2" to="43204224#2"/>
    </person>
    <person id="ped165" depart="1617.59" type="ped_pedestrian">
        <walk from="291302741#4" to="-291302741#1"/>
    </person>
    <person id="ped166" depart="1627.40" type="ped_pedestrian">
        <walk from="289264194#0" to="-211659541#1"/>
    </person>
    <person id="ped167" depart="1637.20" type="ped_pedestrian">
        <walk from="476193324#1" to="43204224#1"/>
    </person>
    <person id="ped168" depart="1647.00" type="ped_pedestrian">
        <walk from="-25767551#2" to="291302741#6"/>
    </person>
    <person id="ped169" depart="1656.81" type="ped_pedestrian">
        <walk from="138483453#1" to="-32946158#3"/>
    </person>
    <person id="ped170" depart="1666.61" type="ped_pedestrian">
        <walk from="291302741#0" to="-25767551#3"/>
    </person>
    <person id="ped171" depart="1676.41" type="ped_pedestrian">
        <walk from="-131269083#2" to="-25753445#4"/>
    </person>
    <person id="ped172" depart="1686.22" type="ped_pedestrian">
        <walk from="-476193324#4" to="43204224#2"/>
    </person>
    <person id="ped173" depart="1696.02" type="ped_pedestrian">
        <walk from="PARK_N_RIDE_NORTH" to="-291302741#4"/>
    </person>
    <person id="ped174" depart="1705.82" type="ped_pedestrian">
        <walk from="25752982#0" to="131875033#3"/>
    </person>
    <person id="ped175" depart="1715.63" type="ped_pedestrian">
        <walk from="gneE10" to="178611985"/>
    </person>
    <person id="ped176" depart="1725.43" type="ped_pedestrian">
        <walk from="681111876#1" to="-211659541#3"/>
    </person>
    <person id="ped177" depart="1735.24" type="ped_pedestrian">
        <walk from="PARK_N_RIDE_SOUTH" to="-25753171"/>
    </person>
    <person id="ped178" depart="1745.04" type="ped_pedestrian">
        <walk from="ENG_SOUTH" to="-291302741#1"/>
    </person>
    <person id="ped179" depart="1754.84" type="ped_pedestrian">
        <walk from="-211659541#1" to="133314768#6"/>
    </person>
    <person id="ped180" depart="1764.65" type="ped_pedestrian">
        <walk from="25767494#1" to="-476193324#0"/>
    </person>
    <person id="ped181" depart="1774.45" type="ped_pedestrian">
        <walk from="211659541#3" to="144832711#0"/>
    </person>
    <person id="ped182" depart="1784.25" type="ped_pedestrian">
        <walk from="131269083#1" to="205144880"/>
    </person>
    <person id="ped183" depart="1794.06" type="ped_pedestrian">
        <walk from="-289264194#0" to="25767463#10"/>
    </person>
    <person id="ped184" depart="1803.86" type="ped_pedestrian">
        <walk from="-109078456" to="681111874#0"/>
    </person>
    <person id="ped185" depart="1813.66" type="ped_pedestrian">
        <walk from="203503835#0" to="25767463#8"/>
    </person>
    <person id="ped186" depart="1823.47" type="ped_pedestrian">
        <walk from="25767551#2" to="25753421#1"/>
    </person>
    <person id="ped187" depart="1833.27" type="ped_pedestrian">
        <walk from="109078457#0" to="-204613545"/>
    </person>
    <person id="ped188" depart="1843.07" type="ped_pedestrian">
        <walk from="25753002#1" to="-476193324#4"/>
    </person>
    <person id="ped189" depart="1852.88" type="ped_pedestrian">
        <walk from="-476193324#0" to="43204200#0"/>
    </person>
    <person id="ped190" depart="1862.68" type="ped_pedestrian">
        <walk from="25767463#8" to="-32946158#2"/>
    </person>
    <person id="ped191" depart="1872.49" type="ped_pedestrian">
        <walk from="-43204200#1" to="133314768#0"/>
    </person>
    <person id="ped192" depart="1882.29" type="ped_pedestrian">
        <walk from="131875033#4" to="-32946158#1"/>
    </person>
    <person id="ped193" depart="1892.09" type="ped_pedestrian">
        <walk from="-24404765#3" to="133314768#2.95"/>
    </person>
    <person id="ped194" depart="1901.90" type="ped_pedestrian">
        <walk from="681111876#1" to="25753445#1"/>
    </person>
    <person id="ped195" depart="1911.70" type="ped_pedestrian">
        <walk from="476193326#2" to="24404765#2"/>
    </person>
    <person id="ped196" depart="1921.50" type="ped_pedestrian">
        <walk from="-32946158#2" to="203503835#4"/>
    </person>
    <person id="ped197" depart="1931.31" type="ped_pedestrian">
        <walk from="-109078456" to="-291302741#6"/>
    </person>
    <person id="ped198" depart="1941.11" type="ped_pedestrian">
        <walk from="133314768#5" to="211659538"/>
    </person>
    <person id="ped199" depart="1950.91" type="ped_pedestrian">
        <walk from="25752988#1" to="138483453#2"/>
    </person>
    <person id="ped200" depart="1960.72" type="ped_pedestrian">
        <walk from="133314775" to="-25753480"/>
    </person>
    <person id="ped201" depart="1970.52" type="ped_pedestrian">
        <walk from="138483469" to="476193326#0"/>
    </person>
    <person id="ped202" depart="1980.32" type="ped_pedestrian">
        <walk from="291302741#0" to="-25752988#0"/>
    </person>
    <person id="ped203" depart="1990.13" type="ped_pedestrian">
        <walk from="-204759281#1" to="144832711#1"/>
    </person>
    <person id="ped204" depart="1999.93" type="ped_pedestrian">
        <walk from="25743008" to="-476193325#0"/>
    </person>
    <person id="ped205" depart="2009.74" type="ped_pedestrian">
        <walk from="292332293#0" to="25767857#0"/>
    </person>
    <person id="ped206" depart="2019.54" type="ped_pedestrian">
        <walk from="25753421#3" to="-25767551#2"/>
    </person>
    <person id="ped207" depart="2029.34" type="ped_pedestrian">
        <walk from="-25753445#5" to="-131269083#2"/>
    </person>
    <person id="ped208" depart="2039.15" type="ped_pedestrian">
        <walk from="-25771747#1" to="138483469"/>
    </person>
    <person id="ped209" depart="2048.95" type="ped_pedestrian">
        <walk from="43204200#0" to="-204720141#0"/>
    </person>
    <person id="ped210" depart="2058.75" type="ped_pedestrian">
        <walk from="133314768#1" to="25742967#2"/>
    </person>
    <person id="ped211" depart="2068.56" type="ped_pedestrian">
        <walk from="-25753445#4" to="25753479#1"/>
    </person>
    <person id="ped212" depart="2078.36" type="ped_pedestrian">
        <walk from="138483501" to="-25771747#1"/>
    </person>
    <person id="ped213" depart="2088.16" type="ped_pedestrian">
        <walk from="25752988#1" to="-109078457#0"/>
    </person>
    <person id="ped214" depart="2097.97" type="ped_pedestrian">
        <walk from="25767857#0" to="25771834"/>
    </person>
    <person id="ped215" depart="2107.77" type="ped_pedestrian">
        <walk from="-211659541#1" to="133314768#3"/>
    </person>
    <person id="ped216" depart="2117.58" type="ped_pedestrian">
        <walk from="-25753002#0" to="ENG_NORTH"/>
    </person>
    <person id="ped217" depart="2127.38" type="ped_pedestrian">
        <walk from="150826232" to="-138483487"/>
    </person>
    <person id="ped218" depart="2137.18" type="ped_pedestrian">
        <walk from="-25771747#2" to="43204200#0"/>
    </person>
    <person id="ped219" depart="2146.99" type="ped_pedestrian">
        <walk from="138483453#0" to="291302741#2"/>
    </person>
    <person id="ped220" depart="2156.79" type="ped_pedestrian">
        <walk from="25753171" to="gneE6"/>
    </person>
    <person id="ped221" depart="2166.59" type="ped_pedestrian">
        <walk from="211659541#0" to="753116588#2"/>
    </person>
    <person id="ped222" depart="2176.40" type="ped_pedestrian">
        <walk from="476193325#1" to="24404765#0"/>
    </person>
    <person id="ped223" depart="2186.20" type="ped_pedestrian">
        <walk from="25767463#8" to="138483528#1"/>
    </person>
    <person id="ped224" depart="2196.00" type="ped_pedestrian">
        <walk from="32946158#1" to="203503835#4"/>
    </person>
    <person id="ped225" depart="2205.81" type="ped_pedestrian">
        <walk from="476193325#2" to="25767551#2"/>
    </person>
    <person id="ped226" depart="2215.61" type="ped_pedestrian">
        <walk from="138483469" to="-289264194#1"/>
    </person>
    <person id="ped227" depart="2225.41" type="ped_pedestrian">
        <walk from="-25771747#1" to="25743230#1"/>
    </person>
    <person id="ped228" depart="2235.22" type="ped_pedestrian">
        <walk from="25771747#2" to="150826242#1"/>
    </person>
    <person id="ped229" depart="2245.02" type="ped_pedestrian">