<?xml version="1.0" encoding="UTF-8"?>

<!-- generated on Tue Mar 31 12:28:16 2020 by Eclipse SUMO duarouter Version v1_5_0+0995-d754181b35
<configuration xmlns:xsi="http://www.w3.org/2001/XMLSchema-instance" xsi:noNamespaceSchemaLocation="http://sumo.dlr.de/xsd/duarouterConfiguration.xsd">

    <input>
        <net-file value="/home/joseph/sumo/tools/2020-03-31-12-28-13/osm.net.xml"/>
        <route-files value="/home/joseph/sumo/tools/2020-03-31-12-28-13/osm.bicycle.trips.xml"/>
    </input>

    <output>
        <output-file value="routes.rou.xml"/>
        <alternatives-output value="routes.rou.alt.xml"/>
    </output>

    <time>
        <begin value="0"/>
        <end value="3600.0"/>
    </time>

    <report>
        <no-warnings value="true"/>
        <ignore-errors value="true"/>
        <no-step-log value="true"/>
    </report>

</configuration>
-->

<routes xmlns:xsi="http://www.w3.org/2001/XMLSchema-instance" xsi:noNamespaceSchemaLocation="http://sumo.dlr.de/xsd/routes_file.xsd">
    <vType id="bike_bicycle" vClass="bicycle"/>
    <vehicle id="bike0" type="bike_bicycle" depart="0.00" departLane="best">
        <route edges="203503835#3 203503835#4 24404765#0 24404765#2 24404765#3 -476193324#2 -476193324#1 -476193324#0 -476193325#1 -476193325#0 -291302741#6 -291302741#5 -291302741#4 -291302741#3 -291302741#2 131875033#0 331948875 131269083#1 131269083#2 -131269083#4"/>
    </vehicle>
    <vehicle id="bike1" type="bike_bicycle" depart="16.07" departLane="best">
        <route edges="-25752982#3 25752982#3 -476193324#3 -24404765#3"/>
    </vehicle>
    <vehicle id="bike2" type="bike_bicycle" depart="32.14" departLane="best">
        <route edges="25743008 25742967#1 25742967#2 -291302741#2 131875033#0 131875033#2 131875033#3 131875033#4 211659541#0 211659541#1 -211659539#1 211659539#1"/>
    </vehicle>
    <vehicle id="bike3" type="bike_bicycle" depart="48.21" departLane="best">
        <route edges="291302741#6 476193325#0 -211659898 -291302741#5 -291302741#4 -291302741#3 -291302741#2 131875033#0 331948875 131269083#1 131269083#2 -131269083#4 -133314768#6"/>
    </vehicle>
    <vehicle id="bike5" type="bike_bicycle" depart="80.35" departLane="best">
        <route edges="-24404765#2 -24404765#0 25753445#1 25753445#3 25753445#4 -109078915 109078915"/>
    </vehicle>
    <vehicle id="bike6" type="bike_bicycle" depart="96.42" departLane="best">
        <route edges="-131269083#4 131269083#4 -131269083#2 -131269083#1 -331948875 131875033#2 131875033#3 131875033#4 211659541#0 211659541#1 211659541#2 211659541#3 -211659541#3"/>
    </vehicle>
    <vehicle id="bike8" type="bike_bicycle" depart="128.56" departLane="best">
        <route edges="-24404765#3 24404765#3 -476193324#2 -476193324#1 -476193324#0 -476193325#1 -476193325#0 -291302741#6 -291302741#5 -291302741#4 -291302741#3 -291302741#2 131875033#0 331948875 131269083#1 131269083#2 -131269083#4 -133314768#6 133314772"/>
    </vehicle>
    <vehicle id="bike9" type="bike_bicycle" depart="144.63" departLane="best">
        <route edges="25753445#4 -25753445#4 -109078457#1"/>
    </vehicle>
    <vehicle id="bike11" type="bike_bicycle" depart="176.77" departLane="best">
        <route edges="-25771747#0 -131875033#4 -131875033#3 -131875033#2 -131875033#0 -291302741#1 204613545 -204613545"/>
    </vehicle>
    <vehicle id="bike12" type="bike_bicycle" depart="192.84" departLane="best">
        <route edges="476193325#1 -476193325#1 -476193325#0 -291302741#6 -291302741#5 -291302741#4 -291302741#3 -291302741#2 131875033#0 131875033#2 131875033#3 131875033#4 131875033#5 25767857#0 25767857#2 25767857#3 -25767857#3"/>
    </vehicle>
    <vehicle id="bike13" type="bike_bicycle" depart="208.91" departLane="best">
        <route edges="-133314775 133314775 133314778 -133314778"/>
    </vehicle>
    <vehicle id="bike14" type="bike_bicycle" depart="224.98" departLane="best">
        <route edges="25767857#3 -25767857#3 -25767857#2 -25767857#0 -25771747#0 -131875033#4 -131875033#3 -131875033#2 331948875 131269083#1 131269083#2 -131269083#4 -133314768#6 133314772 -133314768#3 133488380#0"/>
    </vehicle>
    <vehicle id="bike15" type="bike_bicycle" depart="241.05" departLane="best">
        <route edges="25753445#3 -25753445#3 -25753445#1 24404765#0 24404765#2 24404765#3 -476193324#2 -476193324#1 -476193324#0 -476193325#1 -476193325#0 -291302741#6 -291302741#5 -291302741#4 -291302741#3 -25742967#2 25742967#2"/>
    </vehicle>
    <vehicle id="bike16" type="bike_bicycle" depart="257.12" departLane="best">
        <route edges="131873088#1 131873088#2 -131873090 514316480#1"/>
    </vehicle>
    <vehicle id="bike17" type="bike_bicycle" depart="273.19" departLane="best">
        <route edges="-291302741#5 -291302741#4 -291302741#3 -291302741#2 131875033#0"/>
    </vehicle>
    <vehicle id="bike18" type="bike_bicycle" depart="289.26" departLane="best">
        <route edges="25767551#0 -25767551#0 292332293#2 291302741#0 291302741#1 291302741#2 291302741#3 291302741#4 291302741#5 291302741#6 476193325#0 476193325#1 138483509"/>
    </vehicle>
    <vehicle id="bike21" type="bike_bicycle" depart="337.47" departLane="best">
        <route edges="-25742967#1 25742967#1 25742967#2 291302741#3 291302741#4 291302741#5 291302741#6 476193325#0 476193325#1 476193325#2 476193324#1 476193324#2 476193324#3 -25752982#3 -770894332 -25753171"/>
    </vehicle>
    <vehicle id="bike22" type="bike_bicycle" depart="353.54" departLane="best">
        <route edges="-133314768#4 -133314772 133314768#6 131269083#4 -131269083#2 -131269083#1 -331948875 -131875033#0 291302741#2 -25742967#2"/>
    </vehicle>
    <vehicle id="bike23" type="bike_bicycle" depart="369.61" departLane="best">
        <route edges="-133488380#0 133314768#3 -133314772 133314768#6 131269083#4 -131269083#2 -131269083#1 -331948875 -131875033#0 291302741#2 291302741#3 291302741#4 291302741#5 291302741#6 476193325#0 476193325#1 476193325#2 476193324#1 476193324#2 476193324#3 -25752982#3 25752988#0 -25752988#0"/>
    </vehicle>
    <vehicle id="bike24" type="bike_bicycle" depart="385.67" departLane="best">
        <route edges="203503835#1 203503835#3 203503835#4 24404765#0 24404765#2 24404765#3 -476193324#2 -476193324#1 -476193324#0 -476193325#1 -476193325#0 -291302741#6 -291302741#5 -291302741#4 -291302741#3 -291302741#2 -291302741#1 -291302741#0"/>
    </vehicle>
    <vehicle id="bike26" type="bike_bicycle" depart="417.81" departLane="best">
        <route edges="-25752982#0 25752982#0 25752982#1 25752982#3 -476193324#3 -24404765#3 -24404765#2 -24404765#0 -25753445#0 -203503835#3 -203503835#1 -43204200#1 43204200#1"/>
    </vehicle>
    <vehicle id="bike27" type="bike_bicycle" depart="433.88" departLane="best">
        <route edges="204613518#1 25742967#2 -291302741#2 131875033#0 131875033#2 131875033#3 131875033#4 131875033#5 25771747#1 25771747#2 25753421#3 25753421#1 32946158#0 32946158#1 138483466"/>
    </vehicle>
    <vehicle id="bike28" type="bike_bicycle" depart="449.95" departLane="best">
        <route edges="-204847883 204847883 -25752815#0 -25752799#1 -25752799#0 476193326#2 25752969 770894332 25752982#3 -476193324#3 -476193324#2 -476193324#1 -476193324#0 -476193325#1 -476193325#0 -291302741#6 -291302741#5 -291302741#4 -291302741#3 -25742967#2 25742967#2"/>
    </vehicle>
    <vehicle id="bike29" type="bike_bicycle" depart="466.02" departLane="best">
        <route edges="-204759281#0 -25752988#1 -25752988#0 25752982#3 -476193324#3 -476193324#2 -476193324#1 -476193324#0 -476193325#1 -476193325#0 -291302741#6 -291302741#5 -291302741#4"/>
    </vehicle>
    <vehicle id="bike31" type="bike_bicycle" depart="498.16" departLane="best">
        <route edges="131875033#0 131875033#2 131875033#3 131875033#4 211659541#0"/>
    </vehicle>
    <vehicle id="bike32" type="bike_bicycle" depart="514.23" departLane="best">
        <route edges="25767857#2 -25767857#2 -25767857#0 25771747#1 25771747#2 25753421#3 25753421#1 32946158#0 32946158#1 32946158#2 32946158#3 -25753445#5 -25753445#4 -25753445#3 -25753445#1 24404765#0 24404765#2 24404765#3 476193324#3 -25752982#3 25752988#0"/>
    </vehicle>
    <vehicle id="bike34" type="bike_bicycle" depart="546.37" departLane="best">
        <route edges="-25753480 -25753479#1 -25753479#0 -25753445#1 24404765#0 24404765#2 24404765#3 476193324#3 -25752982#3 -770894332 -25752969"/>
    </vehicle>
    <vehicle id="bike36" type="bike_bicycle" depart="578.51" departLane="best">
        <route edges="291302741#1 291302741#2 291302741#3 291302741#4 291302741#5 291302741#6 476193325#0 476193325#1 476193325#2 476193324#1 476193324#2 -24404765#3 -24404765#2 -24404765#0 25753445#1 25753479#0 25753479#1 25753480 -25753480"/>
    </vehicle>
    <vehicle id="bike38" type="bike_bicycle" depart="610.65" departLane="best">
        <route edges="32946158#1 32946158#2 32946158#3 -25753445#5 -25753445#4 -25753445#3 -25753445#1 24404765#0 24404765#2 24404765#3 476193324#3 -25752982#3 -770894332 -25752969 -476193326#2"/>
    </vehicle>
    <vehicle id="bike39" type="bike_bicycle" depart="626.72" departLane="best">
        <route edges="-25752969 -476193326#2 25752799#0 25752799#1 -25752799#1"/>
    </vehicle>
    <vehicle id="bike40" type="bike_bicycle" depart="642.79" departLane="best">
        <route edges="131875033#3 -131875033#3 -131875033#2 -131875033#0 291302741#2 291302741#3 291302741#4 291302741#5 291302741#6 476193325#0 476193325#1 476193325#2 476193324#1 476193324#2 476193324#3 -25752982#3 -770894332 -25752969 -476193326#2 25752799#0 25752816#0 -25752816#2"/>
    </vehicle>
    <vehicle id="bike41" type="bike_bicycle" depart="658.86" departLane="best">
        <route edges="133314768#4 133314775 133314768#6 131269083#4 -131269083#2 -131269083#1 -331948875 -131875033#0 -291302741#1 -291302741#0 -292332293#2 292332293#2"/>
    </vehicle>
    <vehicle id="bike42" type="bike_bicycle" depart="674.93" departLane="best">
        <route edges="-32946158#0 32946158#0 32946158#1 32946158#2 32946158#3 -25753445#5 -25753445#4 -25753445#3 -25753445#1 24404765#0 24404765#2 -24404765#2"/>
    </vehicle>
    <vehicle id="bike43" type="bike_bicycle" depart="691.00" departLane="best">
        <route edges="770894332 25752982#3 -476193324#3 -476193324#2 -476193324#1 -476193324#0 -476193325#1 -476193325#0 -291302741#6 -291302741#5 -291302741#4 -291302741#3 -291302741#2 131875033#0 131269083#0"/>
    </vehicle>
    <vehicle id="bike47" type="bike_bicycle" depart="755.28" departLane="best">
        <route edges="-131875033#4 -131875033#3 -131875033#2 -131875033#0 291302741#2 291302741#3 291302741#4 291302741#5 -291302741#5"/>
    </vehicle>
    <vehicle id="bike52" type="bike_bicycle" depart="835.63" departLane="best">
        <route edges="-25752982#0 25752982#0 25752982#1 25752982#3 -476193324#3 -24404765#3 -24404765#2 -24404765#0 -25753445#0 203503835#4"/>
    </vehicle>
    <vehicle id="bike53" type="bike_bicycle" depart="851.70" departLane="best">
        <route edges="-138483487 -25767857#0 25771747#1 25771747#2 25753421#3 25753421#1 32946158#0 32946158#1 32946158#2 32946158#3 -25753445#5 -25753445#4 -25753445#3 -25753445#1 24404765#0 24404765#2 24404765#3 -476193324#2 -476193324#1"/>
    </vehicle>
    <vehicle id="bike54" type="bike_bicycle" depart="867.77" departLane="best">
        <route edges="-476193326#1 476193326#0 476193326#2 25752969 770894332 25752982#3 -476193324#3 -476193324#2 -476193324#1 -476193324#0 -476193325#1 -476193325#0 -291302741#6 291302741#6 476193325#0"/>
    </vehicle>
    <vehicle id="bike55" type="bike_bicycle" depart="883.84" departLane="best">
        <route edges="291302741#0 291302741#1 291302741#2 291302741#3 291302741#4 291302741#5 291302741#6 476193325#0 476193325#1 476193325#2 476193324#1 476193324#2 476193324#3 -25752982#3 -770894332 -25752969 -476193326#2 25752799#0 25752816#0 -25752816#2"/>
    </vehicle>
    <vehicle id="bike56" type="bike_bicycle" depart="899.91" departLane="best">
        <route edges="109078457#1 25753445#4 25753445#5 -32946158#3 -32946158#2 -32946158#1 -32946158#0 25753421#2 -25771747#2 -25771747#1 -25771747#0 211659541#0 211659541#1 -211659539#1 -211659539#0"/>
    </vehicle>
    <vehicle id="bike57" type="bike_bicycle" depart="915.98" departLane="best">
        <route edges="32946158#0 32946158#1 32946158#2 32946158#3 -25753445#5 -25753445#4 -25753445#3 -25753445#1 24404765#0 24404765#2 24404765#3 -476193324#2 -476193324#1 289264194#0 289264194#1"/>
    </vehicle>
    <vehicle id="bike58" type="bike_bicycle" depart="932.05" departLane="best">
        <route edges="-25753445#4 -25753445#3 -25753445#1 -25753445#0 203503835#4"/>
    </vehicle>
    <vehicle id="bike59" type="bike_bicycle" depart="948.12" departLane="best">
        <route edges="133488380#1 -133314768#1 -133314768#0 -131269083#1 -331948875 -131875033#0 -291302741#1 204613545 -204613545"/>
    </vehicle>
    <vehicle id="bike62" type="bike_bicycle" depart="996.33" departLane="best">
        <route edges="-109078456 109078456 109078457#1 25753445#4 25753445#5 -32946158#3 -32946158#2 -32946158#1 -32946158#0 25753421#2 -25771747#2 -25771747#1 -25771747#0 -131875033#4 -131875033#3 -131875033#2 -131875033#0 -291302741#1 -291302741#0 -292332293#2 25767551#0 25767551#1 -25767551#3 -25767551#2"/>
    </vehicle>
    <vehicle id="bike64" type="bike_bicycle" depart="1028.47" departLane="best">
        <route edges="291302741#1 -291302741#1 -291302741#0 -292332293#2 25767551#0 25767551#1"/>
    </vehicle>
    <vehicle id="bike65" type="bike_bicycle" depart="1044.54" departLane="best">
        <route edges="-25753479#1 -25753479#0 25753445#3 25753445#4 25753445#5 -32946158#3 -32946158#2 -32946158#1 -32946158#0 25753421#2 -25771747#2 -25771747#1 -25771747#0 -131875033#4 -131875033#3 -131875033#2"/>
    </vehicle>
    <vehicle id="bike66" type="bike_bicycle" depart="1060.61" departLane="best">
        <route edges="291302741#1 291302741#2 291302741#3 291302741#4 291302741#5 291302741#6 476193325#0 476193325#1 476193325#2 476193324#1 476193324#2 476193324#3"/>
    </vehicle>
    <vehicle id="bike68" type="bike_bicycle" depart="1092.75" departLane="best">
        <route edges="-133314768#1 -133314768#0 -131269083#1 -331948875 -131875033#0 291302741#2 291302741#3 291302741#4 291302741#5 291302741#6 476193325#0 476193325#1 476193325#2 476193324#1 476193324#2 476193324#3 -25752982#3 -770894332 -25752969 -476193326#2 25752799#0 25752816#0 -25752816#2 25752816#2"/>
    </vehicle>
    <vehicle id="bike69" type="bike_bicycle" depart="1108.82" departLane="best">
        <route edges="25752969 -25752969 -476193326#2 25752799#0 25752799#1 25752799#2 -188446669"/>
    </vehicle>
    <vehicle id="bike71" type="bike_bicycle" depart="1140.96" departLane="best">
        <route edges="-25752969 25752969 770894332 25752982#3 -476193324#3 -476193324#2 -476193324#1 -476193324#0 -476193325#1 -476193325#0 -291302741#6 -291302741#5 -291302741#4 -291302741#3 -291302741#2 -291302741#1 -291302741#0 -292332293#2 292332293#2 291302741#0"/>
    </vehicle>
    <vehicle id="bike74" type="bike_bicycle" depart="1189.16" departLane="best">
        <route edges="-211659898 211659898 476193325#1 476193325#2 476193324#1 476193324#2 -24404765#3 -24404765#2 -24404765#0 25753445#1 25753479#0 25753479#1 25753479#3 -25753479#3"/>
    </vehicle>
    <vehicle id="bike75" type="bike_bicycle" depart="1205.23" departLane="best">
        <route edges="58953037 -58953037 24404765#2 24404765#3 -476193324#2 -476193324#1 -476193324#0 -476193325#1 -476193325#0 -291302741#6 -291302741#5 -291302741#4 -291302741#3 -25742967#2 -25743230#0 204613519"/>
    </vehicle>
    <vehicle id="bike76" type="bike_bicycle" depart="1221.30" departLane="best">
        <route edges="-476193324#3 -476193324#2 -476193324#1 -476193324#0 -476193325#1 -476193325#0 -291302741#6 -291302741#5 -291302741#4 -291302741#3 -291302741#2 131875033#0 331948875 131269083#1 131269083#2 131269083#3"/>
    </vehicle>
    <vehicle id="bike78" type="bike_bicycle" depart="1253.44" departLane="best">
        <route edges="-25771747#0 -131875033#4 -131875033#3 -131875033#2 331948875 131269083#1 131269083#2 -131269083#4 -133314768#6 133314768#6"/>
    </vehicle>
    <vehicle id="bike79" type="bike_bicycle" depart="1269.51" departLane="best">
        <route edges="-25742967#2 25742967#2 291302741#3 291302741#4 291302741#5 291302741#6 476193325#0 476193325#1 476193325#2 476193324#1 476193324#2 -24404765#3 -24404765#2"/>
    </vehicle>
    <vehicle id="bike80" type="bike_bicycle" depart="1285.58" departLane="best">
        <route edges="-133314768#1 -133314768#0 -131269083#1 -331948875 -131875033#0 291302741#2 291302741#3 291302741#4 291302741#5 291302741#6 476193325#0 476193325#1 476193325#2 476193324#1 476193324#2 -24404765#3 -24404765#2 -24404765#0 -25753445#0 -203503835#3 -203503835#1 -203503835#0 203503835#0"/>
    </vehicle>
    <vehicle id="bike82" type="bike_bicycle" depart="1317.72" departLane="best">
        <route edges="25771867#1 -25771867#1 -25771867#0 25753445#3 25753445#4 25753445#5 -32946158#3 -32946158#2 -32946158#1 -32946158#0 25753421#2 -25771747#2 -25771747#1 -25771747#0 -131875033#4 -131875033#3 -131875033#2 331948875 131269083#1 133314768#0 133314768#1 -133314768#1"/>
    </vehicle>
    <vehicle id="bike83" type="bike_bicycle" depart="1333.79" departLane="best">
        <route edges="-25743230#0 204613518#1 25742967#2 291302741#3 291302741#4 291302741#5 291302741#6 476193325#0 476193325#1 476193325#2 476193324#1 476193324#2 476193324#3 -25752982#3 -770894332 -25752969 -476193326#2 25752799#0 25752799#1 25752815#0 -204847883 204847883"/>
    </vehicle>
    <vehicle id="bike85" type="bike_bicycle" depart="1365.93" departLane="best">
        <route edges="43204200#1 203503835#1 203503835#3 203503835#4 24404765#0 24404765#2 24404765#3 -476193324#2 -476193324#1 -476193324#0 -476193325#1 -476193325#0 -291302741#6 -291302741#5 -291302741#4 -291302741#3 -291302741#2 131875033#0 331948875 131269083#1 133314768#0 133314768#1"/>
    </vehicle>
    <vehicle id="bike87" type="bike_bicycle" depart="1398.07" departLane="best">
        <route edges="25753445#3 25753445#4 25753445#5 -32946158#3 -32946158#2 -32946158#1 -32946158#0 25753421#2 -25771747#2 -25771747#1 -25771747#0 211659541#0 211659541#1 -211659541#1"/>
    </vehicle>
    <vehicle id="bike88" type="bike_bicycle" depart="1414.14" departLane="best">
        <route edges="-133314778 133314768#6 131269083#4 -131269083#2 -131269083#1 -331948875 -131875033#0 291302741#2 291302741#3 291302741#4 291302741#5 291302741#6 476193325#0 476193325#1 476193325#2 -476193324#0"/>
    </vehicle>
    <vehicle id="bike90" type="bike_bicycle" depart="1446.28" departLane="best">
        <route edges="25742967#1 25742967#2 -291302741#2 131875033#0 131875033#2 131875033#3 131875033#4 211659541#0 211659539#0"/>
    </vehicle>
    <vehicle id="bike92" type="bike_bicycle" depart="1478.42" departLane="best">
        <route edges="-32946158#1 -32946158#0 25753421#2 -25771747#2 -25771747#1 25767857#0 25767857#2 25767857#3 -25767857#3"/>
    </vehicle>
    <vehicle id="bike94" type="bike_bicycle" depart="1510.56" departLane="best">
        <route edges="-211659541#1 -211659541#0 -131875033#4 -131875033#3 -131875033#2 -131875033#0 291302741#2 291302741#3 291302741#4 291302741#5 291302741#6 476193325#0 -476193325#0"/>
    </vehicle>
    <vehicle id="bike95" type="bike_bicycle" depart="1526.63" departLane="best">
        <route edges="-43204200#0 43204200#0 43204200#1 203503835#1 203503835#3 203503835#4 24404765#0 24404765#2 24404765#3 476193324#3 -25752982#3 25752988#0 -25752988#0"/>
    </vehicle>
    <vehicle id="bike96" type="bike_bicycle" depart="1542.70" departLane="best">
        <route edges="-25752815#0 -25752799#1 -25752799#0 476193326#2 25752969 770894332 25752982#3 -476193324#3 -476193324#2 -476193324#1 -476193324#0 -476193325#1 -476193325#0 -291302741#6 -291302741#5 -291302741#4 -291302741#3 -291302741#2 131875033#0 131875033#2 331948874"/>
    </vehicle>
    <vehicle id="bike98" type="bike_bicycle" depart="1574.84" departLane="best">
        <route edges="131873090 -131873088#2 -131873091"/>
    </vehicle>
    <vehicle id="bike99" type="bike_bicycle" depart="1590.91" departLane="best">
        <route edges="770894332 25752982#3 -476193324#3 -476193324#2 -476193324#1 -476193324#0 -476193325#1 -476193325#0 -291302741#6 -291302741#5 -291302741#4 -291302741#3 -291302741#2 -291302741#1 -291302741#0 -292332293#2 25767551#0 25767551#1 25767551#2 25767551#3"/>
    </vehicle>
    <vehicle id="bike100" type="bike_bicycle" depart="1606.98" departLane="best">
        <route edges="476193326#2 25752969 770894332 25752982#3 -476193324#3 -476193324#2 -476193324#1 -476193324#0 -476193325#1 -476193325#0 -291302741#6 -291302741#5 -291302741#4 -291302741#3 -291302741#2 131875033#0 331948875"/>
    </vehicle>
    <vehicle id="bike101" type="bike_bicycle" depart="1623.05" departLane="best">
        <route edges="25771747#1 25771747#2 25753421#3 25753421#1 32946158#0 32946158#1 32946158#2 32946158#3 -25753445#5 -25753445#4 -25753445#3 -25753445#1 24404765#0 24404765#2 24404765#3 476193324#3 -25752982#3 25752988#0 25752988#1 25753002#1 204759281#1 -204759281#1"/>
    </vehicle>
    <vehicle id="bike103" type="bike_bicycle" depart="1655.19" departLane="best">
        <route edges="-32946158#0 25753421#2 -25771747#2 -25771747#1 -25771747#0 -131875033#4 -131875033#3 -131875033#2"/>
    </vehicle>
    <vehicle id="bike105" type="bike_bicycle" depart="1687.33" departLane="best">
        <route edges="-25752969 25752969 770894332 -25752982#1 25753002#0"/>
    </vehicle>
    <vehicle id="bike107" type="bike_bicycle" depart="1719.47" departLane="best">
        <route edges="476193325#1 476193325#2 476193324#1 476193324#2 -24404765#3 -24404765#2 58953037"/>
    </vehicle>
    <vehicle id="bike108" type="bike_bicycle" depart="1735.54" departLane="best">
        <route edges="131875033#0 -131875033#0 291302741#2 291302741#3 291302741#4 291302741#5 291302741#6 476193325#0 476193325#1 476193325#2 476193324#1 476193324#2 -24404765#3 24404765#3"/>
    </vehicle>
    <vehicle id="bike109" type="bike_bicycle" depart="1751.61" departLane="best">
        <route edges="-204613545 291302741#1 131875033#0 131875033#2 131875033#3 131875033#4 131875033#5 25771747#1 25771747#2 25753421#3 25753421#1 32946158#0 32946158#1 32946158#2 32946158#3 -25753445#5 -25753445#4 -25753445#3"/>
    </vehicle>
    <vehicle id="bike110" type="bike_bicycle" depart="1767.68" departLane="best">
        <route edges="476193326#2 25752969 770894332 25752982#3 -476193324#3 -476193324#2 -476193324#1 -476193324#0 -476193325#1 -476193325#0 -291302741#6 -291302741#5 -291302741#4 -291302741#3 -291302741#2 131875033#0 331948875 131269083#1 131269083#2 -131269083#4 -133314768#6 133314772 -133314768#3 133314768#3"/>
    </vehicle>
    <vehicle id="bike112" type="bike_bicycle" depart="1799.82" departLane="best">
        <route edges="-131875033#2 331948875 131269083#1 131269083#2 -131269083#4 -133314768#6 -133314768#5 133314768#5"/>
    </vehicle>
    <vehicle id="bike113" type="bike_bicycle" depart="1815.89" departLane="best">
        <route edges="109078915 25753445#5 -32946158#3 -32946158#2 -32946158#1 -32946158#0 25753421#2 -25771747#2 25771747#2"/>
    </vehicle>
    <vehicle id="bike114" type="bike_bicycle" depart="1831.96" departLane="best">
        <route edges="-204720141#0 -476193324#1 -476193324#0 476193325#2"/>
    </vehicle>
    <vehicle id="bike115" type="bike_bicycle" depart="1848.03" departLane="best">
        <route edges="-133314768#4 -133314772 133314768#6 131269083#4 -131269083#2 -131269083#1 -331948875 -131875033#0 291302741#2 291302741#3 211659540 -211659540"/>
    </vehicle>
    <vehicle id="bike116" type="bike_bicycle" depart="1864.10" departLane="best">
        <route edges="133314775 133314768#6 131269083#4 -131269083#2 -131269083#1 -331948875 131875033#2 131875033#3 131875033#4 211659541#0 211659539#0"/>
    </vehicle>
    <vehicle id="bike117" type="bike_bicycle" depart="1880.17" departLane="best">
        <route edges="-25743008 25743008 25742967#1 25742967#2 -291302741#2 131875033#0 131875033#2 131875033#3 131875033#4 131875033#5 25771747#1 138483520#1 -138483520#1"/>
    </vehicle>
    <vehicle id="bike118" type="bike_bicycle" depart="1896.24" departLane="best">
        <route edges="291302741#5 291302741#6 476193325#0 476193325#1 476193325#2 476193324#1 476193324#2 476193324#3 -25752982#3 -770894332 -25752969 -476193326#2 25752799#0 25752799#1 -25752799#1"/>
    </vehicle>
    <vehicle id="bike119" type="bike_bicycle" depart="1912.31" departLane="best">
        <route edges="133314775 133314768#6 131269083#4 -131269083#2 -131269083#1 -331948875 -131875033#0 291302741#2 291302741#3 291302741#4 291302741#5 291302741#6 476193325#0 476193325#1 138483509"/>
    </vehicle>
    <vehicle id="bike121" type="bike_bicycle" depart="1944.44" departLane="best">
        <route edges="131269083#3 131269083#4 -131269083#2 -131269083#1 -331948875 -131875033#0 291302741#2 291302741#3 291302741#4 291302741#5 291302741#6 476193325#0 476193325#1 476193325#2 476193324#1 476193324#2 -24404765#3 -24404765#2 -24404765#0 -25753445#0 -203503835#3 -203503835#1 -43204200#1 43204200#1"/>
    </vehicle>
    <vehicle id="bike124" type="bike_bicycle" depart="1992.65" departLane="best">
        <route edges="204847883 -25752815#0 -25752799#1 -25752799#0 476193326#2 25752969 770894332 25752982#3 -476193324#3 -24404765#3 -24404765#2 -24404765#0 25753445#1 25753445#3 25753445#4 -25753445#4"/>
    </vehicle>
    <vehicle id="bike125" type="bike_bicycle" depart="2008.72" departLane="best">
        <route edges="-25767551#0 292332293#2 291302741#0 291302741#1 291302741#2 291302741#3 291302741#4 291302741#5 291302741#6 476193325#0 476193325#1 476193325#2 476193324#1 476193324#2 476193324#3 -25752982#3 -770894332 -25752969 -476193326#2 25752799#0 25752799#1 25752815#0 25752815#1"/>
    </vehicle>
    <vehicle id="bike126" type="bike_bicycle" depart="2024.79" departLane="best">
        <route edges="-133314768#2 -133314768#1 -133314768#0 -131269083#1 -331948875 -131875033#0 291302741#2 291302741#3 291302741#4 291302741#5 291302741#6 476193325#0 476193325#1 476193325#2 476193324#1 476193324#2 476193324#3 -25752982#3 -770894332 -25752969 -476193326#2"/>
    </vehicle>
    <vehicle id="bike127" type="bike_bicycle" depart="2040.86" departLane="best">
        <route edges="770894332 25752982#3 -476193324#3 -24404765#3 -24404765#2 58953037"/>
    </vehicle>
    <vehicle id="bike129" type="bike_bicycle" depart="2073.00" departLane="best">
        <route edges="-25752969 25752969 770894332 25752982#3 -476193324#3 -24404765#3 -24404765#2 -24404765#0 -25753445#0 -203503835#3 -203503835#1 -43204200#1 -43204200#0 43204200#0"/>
    </vehicle>
    <vehicle id="bike130" type="bike_bicycle" depart="2089.07" departLane="best">
        <route edges="291302741#2"/>
    </vehicle>
    <vehicle id="bike131" type="bike_bicycle" depart="2105.14" departLane="best">
        <route edges="-291302741#2 291302741#2 291302741#3 291302741#4 291302741#5 291302741#6 476193325#0 476193325#1 476193325#2 476193324#1 204720141#0 -204720141#0"/>
    </vehicle>
    <vehicle id="bike134" type="bike_bicycle" depart="2153.35" departLane="best">
        <route edges="204613545 -204613545 291302741#1 131875033#0 131875033#2 131875033#3 131875033#4 131875033#5 25771747#1 25771747#2 25753421#3 25753421#1 32946158#0 32946158#1 32946158#2 32946158#3 -25753445#5 -25753445#4 -109078457#1"/>
    </vehicle>
    <vehicle id="bike135" type="bike_bicycle" depart="2169.42" departLane="best">
        <route edges="25753479#0 -25753479#0 25753445#3 25753445#4 -25753445#4"/>
    </vehicle>
    <vehicle id="bike136" type="bike_bicycle" depart="2185.49" departLane="best">
        <route edges="204759281#1 -204759281#1 -204759281#0 -25752988#1 -25752988#0 25752982#3 -476193324#3 -476193324#2 -476193324#1 476193324#1"/>
    </vehicle>
    <vehicle id="bike137" type="bike_bicycle" depart="2201.56" departLane="best">
        <route edges="-203503835#0 203503835#0 203503835#1 203503835#3 203503835#4 24404765#0 24404765#2 24404765#3 -476193324#2 -476193324#1 -476193324#0 138483509 -138483509"/>
    </vehicle>
    <vehicle id="bike138" type="bike_bicycle" depart="2217.63" departLane="best">
        <route edges="-138483466 -32946158#1 -32946158#0 25753421#2 -25771747#2 -25771747#1 -25771747#0 -131875033#4 -131875033#3 -131875033#2 -131875033#0 131875033#0"/>
    </vehicle>
    <vehicle id="bike139" type="bike_bicycle" depart="2233.70" departLane="best">
        <route edges="-25752982#1 25752982#1 25752982#3 -476193324#3 -476193324#2 -476193324#1 -476193324#0 -476193325#1 -476193325#0 -291302741#6 -291302741#5 -291302741#4 -291302741#3 -291302741#2 131875033#0 331948875 131269083#1 133314768#0 133314768#1 -133488380#1 133488380#1"/>
    </vehicle>
    <vehicle id="bike141" type="bike_bicycle" depart="2265.84" departLane="best">
        <route edges="203503835#0 203503835#1 203503835#3 203503835#4 24404765#0 24404765#2 24404765#3 476193324#3 -25752982#3 -770894332 -25752969 -476193326#2 25752799#0 25752816#0 -25752816#2"/>
    </vehicle>
    <vehicle id="bike143" type="bike_bicycle" depart="2297.98" departLane="best">
        <route edges="25767857#3 -25767857#3 -25767857#2 -25767857#0 -25771747#0 -131875033#4 -131875033#3 -131875033#2 331948875 131269083#1 131269083#2 -131269083#4 -133314768#6 -133314775"/>
    </vehicle>
    <vehicle id="bike144" type="bike_bicycle" depart="2314.05" departLane="best">
        <route edges="-43204200#0 43204200#0 43204200#1 203503835#1 203503835#3 203503835#4 24404765#0 24404765#2 24404765#3 476193324#3 -25752982#3"/>
    </vehicle>
    <vehicle id="bike145" type="bike_bicycle" depart="2330.12" departLane="best">
        <route edges="-109078457#0 109078457#0 109078457#1 -25753445#3 -25753445#1 24404765#0 24404765#2 24404765#3 476193324#3 -25752982#3 -25752982#1 25752982#1"/>
    </vehicle>